MODEL 1
REMARK VINA RESULT:      -5.7      0.000      0.000
REMARK  6 active torsions:
REMARK  status: ('A' for Active; 'I' for Inactive)
REMARK    1  A    between atoms: O_2  and  C_7 
REMARK    2  A    between atoms: O_3  and  C_8 
REMARK    3  A    between atoms: O_4  and  C_10 
REMARK    4  A    between atoms: O_5  and  C_11 
REMARK    5  A    between atoms: O_6  and  C_12 
REMARK    6  A    between atoms: C_9  and  C_12 
ROOT
HETATM    1  O   UNK N   1      17.952   1.529 114.121  0.00  0.00    -0.349 OA
HETATM    2  C   UNK N   1      15.817   1.006 115.207  0.00  0.00     0.180 C 
HETATM    3  C   UNK N   1      16.345  -0.396 115.578  0.00  0.00     0.183 C 
HETATM    4  C   UNK N   1      16.540   1.524 113.932  0.00  0.00     0.179 C 
HETATM    5  C   UNK N   1      17.880  -0.369 115.661  0.00  0.00     0.204 C 
HETATM    6  C   UNK N   1      18.433   0.209 114.335  0.00  0.00     0.288 C 
ENDROOT
BRANCH   4   7
HETATM    7  C   UNK N   1      16.085   2.954 113.607  0.00  0.00     0.198 C 
BRANCH   7   8
HETATM    8  O   UNK N   1      14.744   2.966 113.197  0.00  0.00    -0.398 OA
HETATM    9  H   UNK N   1      14.657   2.283 112.482  0.00  0.00     0.209 HD
ENDBRANCH   7   8
ENDBRANCH   4   7
BRANCH   2  10
HETATM   10  O   UNK N   1      14.421   0.979 115.025  0.00  0.00    -0.390 OA
HETATM   11  H   UNK N   1      14.221   0.280 114.347  0.00  0.00     0.210 HD
ENDBRANCH   2  10
BRANCH   6  12
HETATM   12  O   UNK N   1      19.837   0.207 114.334  0.00  0.00    -0.369 OA
HETATM   13  H   UNK N   1      20.141   1.040 113.889  0.00  0.00     0.212 HD
ENDBRANCH   6  12
BRANCH   3  14
HETATM   14  O   UNK N   1      15.813  -0.834 116.801  0.00  0.00    -0.390 OA
HETATM   15  H   UNK N   1      15.925  -1.820 116.828  0.00  0.00     0.210 HD
ENDBRANCH   3  14
BRANCH   5  16
HETATM   16  O   UNK N   1      18.318   0.365 116.784  0.00  0.00    -0.388 OA
HETATM   17  H   UNK N   1      19.228   0.062 117.037  0.00  0.00     0.210 HD
ENDBRANCH   5  16
TORSDOF 6
ENDMDL
MODEL 2
REMARK VINA RESULT:      -5.7      1.998      4.375
REMARK  6 active torsions:
REMARK  status: ('A' for Active; 'I' for Inactive)
REMARK    1  A    between atoms: O_2  and  C_7 
REMARK    2  A    between atoms: O_3  and  C_8 
REMARK    3  A    between atoms: O_4  and  C_10 
REMARK    4  A    between atoms: O_5  and  C_11 
REMARK    5  A    between atoms: O_6  and  C_12 
REMARK    6  A    between atoms: C_9  and  C_12 
ROOT
HETATM    1  O   UNK N   1      15.579   1.382 116.863  0.00  0.00    -0.349 OA
HETATM    2  C   UNK N   1      16.627   1.272 114.649  0.00  0.00     0.180 C 
HETATM    3  C   UNK N   1      15.816   2.505 114.200  0.00  0.00     0.183 C 
HETATM    4  C   UNK N   1      15.861   0.514 115.770  0.00  0.00     0.179 C 
HETATM    5  C   UNK N   1      15.438   3.354 115.425  0.00  0.00     0.204 C 
HETATM    6  C   UNK N   1      14.725   2.442 116.453  0.00  0.00     0.288 C 
ENDROOT
BRANCH   4   7
HETATM    7  C   UNK N   1      16.701  -0.664 116.285  0.00  0.00     0.198 C 
BRANCH   7   8
HETATM    8  O   UNK N   1      16.493  -1.804 115.496  0.00  0.00    -0.398 OA
HETATM    9  H   UNK N   1      17.170  -2.475 115.775  0.00  0.00     0.209 HD
ENDBRANCH   7   8
ENDBRANCH   4   7
BRANCH   2  10
HETATM   10  O   UNK N   1      16.895   0.428 113.555  0.00  0.00    -0.390 OA
HETATM   11  H   UNK N   1      17.799   0.039 113.691  0.00  0.00     0.210 HD
ENDBRANCH   2  10
BRANCH   6  12
HETATM   12  O   UNK N   1      14.308   3.179 117.573  0.00  0.00    -0.369 OA
HETATM   13  H   UNK N   1      14.106   4.102 117.270  0.00  0.00     0.212 HD
ENDBRANCH   6  12
BRANCH   3  14
HETATM   14  O   UNK N   1      16.541   3.287 113.288  0.00  0.00    -0.390 OA
HETATM   15  H   UNK N   1      15.949   4.034 113.011  0.00  0.00     0.210 HD
ENDBRANCH   3  14
BRANCH   5  16
HETATM   16  O   UNK N   1      16.571   3.991 115.975  0.00  0.00    -0.388 OA
HETATM   17  H   UNK N   1      17.377   3.724 115.461  0.00  0.00     0.210 HD
ENDBRANCH   5  16
TORSDOF 6
ENDMDL
MODEL 3
REMARK VINA RESULT:      -5.7      1.569      3.601
REMARK  6 active torsions:
REMARK  status: ('A' for Active; 'I' for Inactive)
REMARK    1  A    between atoms: O_2  and  C_7 
REMARK    2  A    between atoms: O_3  and  C_8 
REMARK    3  A    between atoms: O_4  and  C_10 
REMARK    4  A    between atoms: O_5  and  C_11 
REMARK    5  A    between atoms: O_6  and  C_12 
REMARK    6  A    between atoms: C_9  and  C_12 
ROOT
HETATM    1  O   UNK N   1      17.388   2.043 115.467  0.00  0.00    -0.349 OA
HETATM    2  C   UNK N   1      16.235  -0.095 115.131  0.00  0.00     0.180 C 
HETATM    3  C   UNK N   1      14.917   0.533 115.634  0.00  0.00     0.183 C 
HETATM    4  C   UNK N   1      17.448   0.649 115.756  0.00  0.00     0.179 C 
HETATM    5  C   UNK N   1      14.944   2.053 115.403  0.00  0.00     0.204 C 
HETATM    6  C   UNK N   1      16.230   2.625 116.049  0.00  0.00     0.288 C 
ENDROOT
BRANCH   4   7
HETATM    7  C   UNK N   1      18.763   0.089 115.193  0.00  0.00     0.198 C 
BRANCH   7   8
HETATM    8  O   UNK N   1      18.553  -0.502 113.939  0.00  0.00    -0.398 OA
HETATM    9  H   UNK N   1      19.177  -1.272 113.876  0.00  0.00     0.209 HD
ENDBRANCH   7   8
ENDBRANCH   4   7
BRANCH   2  10
HETATM   10  O   UNK N   1      16.273  -1.471 115.426  0.00  0.00    -0.390 OA
HETATM   11  H   UNK N   1      17.155  -1.817 115.126  0.00  0.00     0.210 HD
ENDBRANCH   2  10
BRANCH   6  12
HETATM   12  O   UNK N   1      16.280   4.022 115.916  0.00  0.00    -0.369 OA
HETATM   13  H   UNK N   1      17.171   4.260 115.550  0.00  0.00     0.212 HD
ENDBRANCH   6  12
BRANCH   3  14
HETATM   14  O   UNK N   1      13.806  -0.025 114.984  0.00  0.00    -0.390 OA
HETATM   15  H   UNK N   1      13.562   0.593 114.247  0.00  0.00     0.210 HD
ENDBRANCH   3  14
BRANCH   5  16
HETATM   16  O   UNK N   1      14.856   2.363 114.029  0.00  0.00    -0.388 OA
HETATM   17  H   UNK N   1      15.679   2.051 113.571  0.00  0.00     0.210 HD
ENDBRANCH   5  16
TORSDOF 6
ENDMDL
MODEL 4
REMARK VINA RESULT:      -5.6     19.296     20.168
REMARK  6 active torsions:
REMARK  status: ('A' for Active; 'I' for Inactive)
REMARK    1  A    between atoms: O_2  and  C_7 
REMARK    2  A    between atoms: O_3  and  C_8 
REMARK    3  A    between atoms: O_4  and  C_10 
REMARK    4  A    between atoms: O_5  and  C_11 
REMARK    5  A    between atoms: O_6  and  C_12 
REMARK    6  A    between atoms: C_9  and  C_12 
ROOT
HETATM    1  O   UNK N   1      29.513  14.478 124.358  0.00  0.00    -0.349 OA
HETATM    2  C   UNK N   1      28.939  12.436 125.588  0.00  0.00     0.180 C 
HETATM    3  C   UNK N   1      29.277  11.587 124.344  0.00  0.00     0.183 C 
HETATM    4  C   UNK N   1      28.504  13.863 125.153  0.00  0.00     0.179 C 
HETATM    5  C   UNK N   1      30.286  12.339 123.460  0.00  0.00     0.204 C 
HETATM    6  C   UNK N   1      29.718  13.748 123.157  0.00  0.00     0.288 C 
ENDROOT
BRANCH   4   7
HETATM    7  C   UNK N   1      28.250  14.741 126.387  0.00  0.00     0.198 C 
BRANCH   7   8
HETATM    8  O   UNK N   1      27.074  14.348 127.042  0.00  0.00    -0.398 OA
HETATM    9  H   UNK N   1      27.321  14.159 127.986  0.00  0.00     0.209 HD
ENDBRANCH   7   8
ENDBRANCH   4   7
BRANCH   2  10
HETATM   10  O   UNK N   1      27.940  11.811 126.358  0.00  0.00    -0.390 OA
HETATM   11  H   UNK N   1      27.060  12.096 125.995  0.00  0.00     0.210 HD
ENDBRANCH   2  10
BRANCH   6  12
HETATM   12  O   UNK N   1      30.577  14.462 122.305  0.00  0.00    -0.369 OA
HETATM   13  H   UNK N   1      30.942  15.229 122.818  0.00  0.00     0.212 HD
ENDBRANCH   6  12
BRANCH   3  14
HETATM   14  O   UNK N   1      29.805  10.339 124.707  0.00  0.00    -0.390 OA
HETATM   15  H   UNK N   1      30.634  10.515 125.224  0.00  0.00     0.210 HD
ENDBRANCH   3  14
BRANCH   5  16
HETATM   16  O   UNK N   1      31.557  12.399 124.072  0.00  0.00    -0.388 OA
HETATM   17  H   UNK N   1      31.781  13.345 124.266  0.00  0.00     0.210 HD
ENDBRANCH   5  16
TORSDOF 6
ENDMDL
MODEL 5
REMARK VINA RESULT:      -5.5     14.766     16.383
REMARK  6 active torsions:
REMARK  status: ('A' for Active; 'I' for Inactive)
REMARK    1  A    between atoms: O_2  and  C_7 
REMARK    2  A    between atoms: O_3  and  C_8 
REMARK    3  A    between atoms: O_4  and  C_10 
REMARK    4  A    between atoms: O_5  and  C_11 
REMARK    5  A    between atoms: O_6  and  C_12 
REMARK    6  A    between atoms: C_9  and  C_12 
ROOT
HETATM    1  O   UNK N   1      31.018   6.813 121.734  0.00  0.00    -0.349 OA
HETATM    2  C   UNK N   1      29.990   6.922 119.510  0.00  0.00     0.180 C 
HETATM    3  C   UNK N   1      29.084   8.079 119.982  0.00  0.00     0.183 C 
HETATM    4  C   UNK N   1      30.388   6.033 120.722  0.00  0.00     0.179 C 
HETATM    5  C   UNK N   1      29.755   8.823 121.148  0.00  0.00     0.204 C 
HETATM    6  C   UNK N   1      30.121   7.791 122.243  0.00  0.00     0.288 C 
ENDROOT
BRANCH   4   7
HETATM    7  C   UNK N   1      31.361   4.931 120.277  0.00  0.00     0.198 C 
BRANCH   7   8
HETATM    8  O   UNK N   1      31.515   3.969 121.285  0.00  0.00    -0.398 OA
HETATM    9  H   UNK N   1      30.602   3.717 121.583  0.00  0.00     0.209 HD
ENDBRANCH   7   8
ENDBRANCH   4   7
BRANCH   2  10
HETATM   10  O   UNK N   1      29.349   6.165 118.511  0.00  0.00    -0.390 OA
HETATM   11  H   UNK N   1      28.640   5.628 118.952  0.00  0.00     0.210 HD
ENDBRANCH   2  10
BRANCH   6  12
HETATM   12  O   UNK N   1      30.690   8.424 123.360  0.00  0.00    -0.369 OA
HETATM   13  H   UNK N   1      30.347   7.970 124.173  0.00  0.00     0.212 HD
ENDBRANCH   6  12
BRANCH   3  14
HETATM   14  O   UNK N   1      28.820   8.978 118.937  0.00  0.00    -0.390 OA
HETATM   15  H   UNK N   1      28.322   8.474 118.242  0.00  0.00     0.210 HD
ENDBRANCH   3  14
BRANCH   5  16
HETATM   16  O   UNK N   1      30.880   9.553 120.709  0.00  0.00    -0.388 OA
HETATM   17  H   UNK N   1      30.671  10.522 120.737  0.00  0.00     0.210 HD
ENDBRANCH   5  16
TORSDOF 6
ENDMDL
MODEL 6
REMARK VINA RESULT:      -5.5      1.651      3.109
REMARK  6 active torsions:
REMARK  status: ('A' for Active; 'I' for Inactive)
REMARK    1  A    between atoms: O_2  and  C_7 
REMARK    2  A    between atoms: O_3  and  C_8 
REMARK    3  A    between atoms: O_4  and  C_10 
REMARK    4  A    between atoms: O_5  and  C_11 
REMARK    5  A    between atoms: O_6  and  C_12 
REMARK    6  A    between atoms: C_9  and  C_12 
ROOT
HETATM    1  O   UNK N   1      16.227  -0.651 114.724  0.00  0.00    -0.349 OA
HETATM    2  C   UNK N   1      14.866   1.311 115.281  0.00  0.00     0.180 C 
HETATM    3  C   UNK N   1      16.137   2.187 115.316  0.00  0.00     0.183 C 
HETATM    4  C   UNK N   1      15.229  -0.163 115.615  0.00  0.00     0.179 C 
HETATM    5  C   UNK N   1      17.224   1.561 114.427  0.00  0.00     0.204 C 
HETATM    6  C   UNK N   1      17.431   0.091 114.865  0.00  0.00     0.288 C 
ENDROOT
BRANCH   4   7
HETATM    7  C   UNK N   1      13.986  -1.057 115.496  0.00  0.00     0.198 C 
BRANCH   7   8
HETATM    8  O   UNK N   1      13.137  -0.593 114.482  0.00  0.00    -0.398 OA
HETATM    9  H   UNK N   1      13.320   0.378 114.376  0.00  0.00     0.209 HD
ENDBRANCH   7   8
ENDBRANCH   4   7
BRANCH   2  10
HETATM   10  O   UNK N   1      13.894   1.810 116.168  0.00  0.00    -0.390 OA
HETATM   11  H   UNK N   1      13.448   1.031 116.594  0.00  0.00     0.210 HD
ENDBRANCH   2  10
BRANCH   6  12
HETATM   12  O   UNK N   1      18.455  -0.516 114.120  0.00  0.00    -0.369 OA
HETATM   13  H   UNK N   1      18.232  -0.411 113.158  0.00  0.00     0.212 HD
ENDBRANCH   6  12
BRANCH   3  14
HETATM   14  O   UNK N   1      15.866   3.494 114.884  0.00  0.00    -0.390 OA
HETATM   15  H   UNK N   1      15.902   4.077 115.687  0.00  0.00     0.210 HD
ENDBRANCH   3  14
BRANCH   5  16
HETATM   16  O   UNK N   1      16.889   1.666 113.060  0.00  0.00    -0.388 OA
HETATM   17  H   UNK N   1      17.320   0.925 112.561  0.00  0.00     0.210 HD
ENDBRANCH   5  16
TORSDOF 6
ENDMDL
MODEL 7
REMARK VINA RESULT:      -5.4     19.181     20.182
REMARK  6 active torsions:
REMARK  status: ('A' for Active; 'I' for Inactive)
REMARK    1  A    between atoms: O_2  and  C_7 
REMARK    2  A    between atoms: O_3  and  C_8 
REMARK    3  A    between atoms: O_4  and  C_10 
REMARK    4  A    between atoms: O_5  and  C_11 
REMARK    5  A    between atoms: O_6  and  C_12 
REMARK    6  A    between atoms: C_9  and  C_12 
ROOT
HETATM    1  O   UNK N   1      28.905  13.566 123.437  0.00  0.00    -0.349 OA
HETATM    2  C   UNK N   1      28.357  12.656 125.647  0.00  0.00     0.180 C 
HETATM    3  C   UNK N   1      28.241  14.087 126.212  0.00  0.00     0.183 C 
HETATM    4  C   UNK N   1      29.330  12.642 124.434  0.00  0.00     0.179 C 
HETATM    5  C   UNK N   1      27.890  15.066 125.079  0.00  0.00     0.204 C 
HETATM    6  C   UNK N   1      28.927  14.894 123.943  0.00  0.00     0.288 C 
ENDROOT
BRANCH   4   7
HETATM    7  C   UNK N   1      29.384  11.240 123.811  0.00  0.00     0.198 C 
BRANCH   7   8
HETATM    8  O   UNK N   1      30.073  10.351 124.649  0.00  0.00    -0.398 OA
HETATM    9  H   UNK N   1      29.957   9.444 124.262  0.00  0.00     0.209 HD
ENDBRANCH   7   8
ENDBRANCH   4   7
BRANCH   2  10
HETATM   10  O   UNK N   1      28.778  11.760 126.648  0.00  0.00    -0.390 OA
HETATM   11  H   UNK N   1      28.937  12.288 127.475  0.00  0.00     0.210 HD
ENDBRANCH   2  10
BRANCH   6  12
HETATM   12  O   UNK N   1      28.687  15.805 122.901  0.00  0.00    -0.369 OA
HETATM   13  H   UNK N   1      27.771  15.637 122.557  0.00  0.00     0.212 HD
ENDBRANCH   6  12
BRANCH   3  14
HETATM   14  O   UNK N   1      27.266  14.160 127.219  0.00  0.00    -0.390 OA
HETATM   15  H   UNK N   1      26.419  13.823 126.826  0.00  0.00     0.210 HD
ENDBRANCH   3  14
BRANCH   5  16
HETATM   16  O   UNK N   1      26.567  14.871 124.626  0.00  0.00    -0.388 OA
HETATM   17  H   UNK N   1      26.549  14.109 123.992  0.00  0.00     0.210 HD
ENDBRANCH   5  16
TORSDOF 6
ENDMDL
MODEL 8
REMARK VINA RESULT:      -5.4     17.679     18.702
REMARK  6 active torsions:
REMARK  status: ('A' for Active; 'I' for Inactive)
REMARK    1  A    between atoms: O_2  and  C_7 
REMARK    2  A    between atoms: O_3  and  C_8 
REMARK    3  A    between atoms: O_4  and  C_10 
REMARK    4  A    between atoms: O_5  and  C_11 
REMARK    5  A    between atoms: O_6  and  C_12 
REMARK    6  A    between atoms: C_9  and  C_12 
ROOT
HETATM    1  O   UNK N   1      27.382  12.681 123.341  0.00  0.00    -0.349 OA
HETATM    2  C   UNK N   1      29.301  11.154 123.339  0.00  0.00     0.180 C 
HETATM    3  C   UNK N   1      29.924  11.929 124.520  0.00  0.00     0.183 C 
HETATM    4  C   UNK N   1      28.383  12.097 122.512  0.00  0.00     0.179 C 
HETATM    5  C   UNK N   1      28.816  12.634 125.321  0.00  0.00     0.204 C 
HETATM    6  C   UNK N   1      27.976  13.493 124.345  0.00  0.00     0.288 C 
ENDROOT
BRANCH   4   7
HETATM    7  C   UNK N   1      27.690  11.313 121.388  0.00  0.00     0.198 C 
BRANCH   7   8
HETATM    8  O   UNK N   1      27.511   9.972 121.756  0.00  0.00    -0.398 OA
HETATM    9  H   UNK N   1      28.346   9.686 122.212  0.00  0.00     0.209 HD
ENDBRANCH   7   8
ENDBRANCH   4   7
BRANCH   2  10
HETATM   10  O   UNK N   1      30.306  10.586 122.534  0.00  0.00    -0.390 OA
HETATM   11  H   UNK N   1      30.565   9.719 122.945  0.00  0.00     0.210 HD
ENDBRANCH   2  10
BRANCH   6  12
HETATM   12  O   UNK N   1      26.979  14.205 125.033  0.00  0.00    -0.369 OA
HETATM   13  H   UNK N   1      26.221  14.346 124.408  0.00  0.00     0.212 HD
ENDBRANCH   6  12
BRANCH   3  14
HETATM   14  O   UNK N   1      30.648  11.075 125.365  0.00  0.00    -0.390 OA
HETATM   15  H   UNK N   1      30.175  10.202 125.369  0.00  0.00     0.210 HD
ENDBRANCH   3  14
BRANCH   5  16
HETATM   16  O   UNK N   1      28.024  11.703 126.027  0.00  0.00    -0.388 OA
HETATM   17  H   UNK N   1      28.101  11.881 126.999  0.00  0.00     0.210 HD
ENDBRANCH   5  16
TORSDOF 6
ENDMDL
MODEL 9
REMARK VINA RESULT:      -5.2     18.789     19.619
REMARK  6 active torsions:
REMARK  status: ('A' for Active; 'I' for Inactive)
REMARK    1  A    between atoms: O_2  and  C_7 
REMARK    2  A    between atoms: O_3  and  C_8 
REMARK    3  A    between atoms: O_4  and  C_10 
REMARK    4  A    between atoms: O_5  and  C_11 
REMARK    5  A    between atoms: O_6  and  C_12 
REMARK    6  A    between atoms: C_9  and  C_12 
ROOT
HETATM    1  O   UNK N   1      29.836  13.651 125.060  0.00  0.00    -0.349 OA
HETATM    2  C   UNK N   1      27.487  13.353 124.422  0.00  0.00     0.180 C 
HETATM    3  C   UNK N   1      27.925  12.579 123.159  0.00  0.00     0.183 C 
HETATM    4  C   UNK N   1      28.607  14.341 124.852  0.00  0.00     0.179 C 
HETATM    5  C   UNK N   1      29.306  11.945 123.391  0.00  0.00     0.204 C 
HETATM    6  C   UNK N   1      30.284  13.053 123.852  0.00  0.00     0.288 C 
ENDROOT
BRANCH   4   7
HETATM    7  C   UNK N   1      28.218  15.050 126.157  0.00  0.00     0.198 C 
BRANCH   7   8
HETATM    8  O   UNK N   1      27.491  14.189 126.992  0.00  0.00    -0.398 OA
HETATM    9  H   UNK N   1      27.638  14.501 127.924  0.00  0.00     0.209 HD
ENDBRANCH   7   8
ENDBRANCH   4   7
BRANCH   2  10
HETATM   10  O   UNK N   1      26.272  14.027 124.195  0.00  0.00    -0.390 OA
HETATM   11  H   UNK N   1      25.673  13.831 124.963  0.00  0.00     0.210 HD
ENDBRANCH   2  10
BRANCH   6  12
HETATM   12  O   UNK N   1      31.579  12.538 124.026  0.00  0.00    -0.369 OA
HETATM   13  H   UNK N   1      31.642  12.182 124.951  0.00  0.00     0.212 HD
ENDBRANCH   6  12
BRANCH   3  14
HETATM   14  O   UNK N   1      26.995  11.583 122.825  0.00  0.00    -0.390 OA
HETATM   15  H   UNK N   1      26.178  11.758 123.360  0.00  0.00     0.210 HD
ENDBRANCH   3  14
BRANCH   5  16
HETATM   16  O   UNK N   1      29.231  10.882 124.318  0.00  0.00    -0.388 OA
HETATM   17  H   UNK N   1      30.146  10.654 124.626  0.00  0.00     0.210 HD
ENDBRANCH   5  16
TORSDOF 6
ENDMDL
