REMARK  Name = 44630048
REMARK  18 active torsions:
REMARK  status: ('A' for Active; 'I' for Inactive)
REMARK    1  A    between atoms: O_1  and  C_20
REMARK    2  A    between atoms: O_1  and  C_26
REMARK    3  A    between atoms: O_3  and  C_23
REMARK    4  A    between atoms: O_3  and  C_25
REMARK    5  A    between atoms: O_6  and  C_21
REMARK    6  A    between atoms: O_7  and  C_22
REMARK    7  A    between atoms: O_8  and  C_27
REMARK    8  A    between atoms: O_9  and  C_28
REMARK    9  A    between atoms: O_10  and  C_29
REMARK   10  A    between atoms: O_11  and  C_31
REMARK   11  A    between atoms: O_12  and  C_32
REMARK   12  A    between atoms: O_13  and  C_34
REMARK   13  A    between atoms: O_14  and  C_35
REMARK   14  A    between atoms: O_16  and  C_36
REMARK   15  A    between atoms: O_17  and  C_37
REMARK   16  A    between atoms: C_24  and  C_35
REMARK   17  A    between atoms: C_30  and  C_36
REMARK   18  A    between atoms: C_33  and  C_37
REMARK                            x       y       z     vdW  Elec       q    Type
REMARK                         _______ _______ _______ _____ _____    ______ ____
ROOT
ATOM      2  O   UNL     1      -0.963   1.006   1.148  0.00  0.00    +0.000 OA
ATOM     20  C   UNL     1       0.883   0.036  -0.146  0.00  0.00    +0.000 C 
ATOM     21  C   UNL     1       0.305  -1.367   0.069  0.00  0.00    +0.000 C 
ATOM     22  C   UNL     1      -0.558  -1.381   1.336  0.00  0.00    +0.000 C 
ATOM     23  C   UNL     1      -1.604  -0.260   1.338  0.00  0.00    +0.000 C 
ATOM     24  C   UNL     1      -0.231   1.087  -0.072  0.00  0.00    +0.000 C 
ENDROOT
BRANCH  21   6
ATOM      6  O   UNL     1      -0.484  -1.734  -1.060  0.00  0.00    +0.000 OA
ATOM     38  H   UNL     1       0.099  -1.732  -1.839  0.00  0.00    +0.000 HD
ENDBRANCH  21   6
BRANCH  22   7
ATOM      7  O   UNL     1      -1.176  -2.653   1.488  0.00  0.00    +0.000 OA
ATOM     39  H   UNL     1      -0.471  -3.323   1.497  0.00  0.00    +0.000 HD
ENDBRANCH  22   7
BRANCH  24  35
ATOM     15  O   UNL     1       0.208   3.306   0.771  0.00  0.00    +0.000 OA
ATOM     35  C   UNL     1       0.327   2.473  -0.115  0.00  0.00    +0.000 C 
BRANCH  35  14
ATOM     14  O   UNL     1       0.987   2.688  -1.280  0.00  0.00    +0.000 OA
ATOM     46  H   UNL     1       1.363   3.593  -1.327  0.00  0.00    +0.000 HD
ENDBRANCH  35  14
ENDBRANCH  24  35
BRANCH  20   1
ATOM      1  O   UNL     1       1.850   0.297   0.871  0.00  0.00    +0.000 OA
BRANCH   1  26
ATOM      4  O   UNL     1       3.588  -0.553  -0.458  0.00  0.00    +0.000 OA
ATOM     26  C   UNL     1       3.134   0.561   0.313  0.00  0.00    +0.000 C 
ATOM     28  C   UNL     1       4.115   0.840   1.452  0.00  0.00    +0.000 C 
ATOM     29  C   UNL     1       5.505   1.117   0.879  0.00  0.00    +0.000 C 
ATOM     32  C   UNL     1       5.944  -0.007  -0.063  0.00  0.00    +0.000 C 
ATOM     33  C   UNL     1       4.846  -0.308  -1.082  0.00  0.00    +0.000 C 
BRANCH  28   9
ATOM      9  O   UNL     1       4.164  -0.317   2.294  0.00  0.00    +0.000 OA
ATOM     41  H   UNL     1       4.283  -1.100   1.731  0.00  0.00    +0.000 HD
ENDBRANCH  28   9
BRANCH  29  10
ATOM     10  O   UNL     1       6.454   1.240   1.934  0.00  0.00    +0.000 OA
ATOM     42  H   UNL     1       6.147   1.951   2.522  0.00  0.00    +0.000 HD
ENDBRANCH  29  10
BRANCH  32  12
ATOM     12  O   UNL     1       7.117   0.401  -0.764  0.00  0.00    +0.000 OA
ATOM     44  H   UNL     1       6.898   1.196  -1.281  0.00  0.00    +0.000 HD
ENDBRANCH  32  12
BRANCH  33  37
ATOM     19  O   UNL     1       4.421  -2.586  -1.754  0.00  0.00    +0.000 OA
ATOM     37  C   UNL     1       5.124  -1.588  -1.801  0.00  0.00    +0.000 C 
BRANCH  37  17
ATOM     17  O   UNL     1       6.271  -1.495  -2.518  0.00  0.00    +0.000 OA
ATOM     48  H   UNL     1       6.472  -2.327  -2.997  0.00  0.00    +0.000 HD
ENDBRANCH  37  17
ENDBRANCH  33  37
ENDBRANCH   1  26
ENDBRANCH  20   1
BRANCH  23   3
ATOM      3  O   UNL     1      -2.611  -0.506   0.359  0.00  0.00    +0.000 OA
BRANCH   3  25
ATOM      5  O   UNL     1      -5.034  -0.804  -1.231  0.00  0.00    +0.000 OA
ATOM     25  C   UNL     1      -3.874   0.018   0.769  0.00  0.00    +0.000 C 
ATOM     27  C   UNL     1      -4.001   1.457   0.259  0.00  0.00    +0.000 C 
ATOM     30  C   UNL     1      -4.997  -0.852   0.193  0.00  0.00    +0.000 C 
ATOM     31  C   UNL     1      -4.141   1.454  -1.268  0.00  0.00    +0.000 C 
ATOM     34  C   UNL     1      -5.254   0.513  -1.746  0.00  0.00    +0.000 C 
BRANCH  27   8
ATOM      8  O   UNL     1      -5.144   2.071   0.850  0.00  0.00    +0.000 OA
ATOM     40  H   UNL     1      -5.012   2.070   1.813  0.00  0.00    +0.000 HD
ENDBRANCH  27   8
BRANCH  31  11
ATOM     11  O   UNL     1      -4.358   2.778  -1.738  0.00  0.00    +0.000 OA
ATOM     43  H   UNL     1      -3.616   3.325  -1.429  0.00  0.00    +0.000 HD
ENDBRANCH  31  11
BRANCH  34  13
ATOM     13  O   UNL     1      -6.536   1.024  -1.389  0.00  0.00    +0.000 OA
ATOM     45  H   UNL     1      -7.174   0.669  -2.030  0.00  0.00    +0.000 HD
ENDBRANCH  34  13
BRANCH  30  36
ATOM     18  O   UNL     1      -4.644  -3.196  -0.265  0.00  0.00    +0.000 OA
ATOM     36  C   UNL     1      -4.803  -2.292   0.543  0.00  0.00    +0.000 C 
BRANCH  36  16
ATOM     16  O   UNL     1      -4.827  -2.466   1.887  0.00  0.00    +0.000 OA
ATOM     47  H   UNL     1      -4.700  -3.406   2.137  0.00  0.00    +0.000 HD
ENDBRANCH  36  16
ENDBRANCH  30  36
ENDBRANCH   3  25
ENDBRANCH  23   3
TORSDOF 18
