REMARK  Name = E:\---WorkFiles\Computational Chemistry\Drug Discovery\Training\1QDO_08.05.21\mannose_part.pdb
REMARK  5 active torsions:
REMARK  status: ('A' for Active; 'I' for Inactive)
REMARK    1  A    between atoms: C1_1  and  O1_8
REMARK    2  A    between atoms: C3_3  and  O3_10
REMARK    3  A    between atoms: C5_5  and  C6_6
REMARK    4  A    between atoms: O3_10  and  C1_14
REMARK    5  A    between atoms: C5_18  and  C6_19
REMARK                            x       y       z     vdW  Elec       q    Type
REMARK                         _______ _______ _______ _____ _____    ______ ____
ROOT
ATOM      1  C1  MMA E   1      29.074 -29.862  11.118  0.00  0.00    +0.000 C 
ATOM      2  C2  MMA E   1      28.494 -28.442  10.951  0.00  0.00    +0.000 C 
ATOM      3  C3  MMA E   1      27.766 -28.334   9.589  0.00  0.00    +0.000 C 
ATOM      4  C4  MMA E   1      28.731 -28.761   8.453  0.00  0.00    +0.000 C 
ATOM      5  C5  MMA E   1      29.400 -30.128   8.754  0.00  0.00    +0.000 C 
ATOM      9  O2  MMA E   1      29.538 -27.464  11.056  0.00  0.00    +0.000 OA
ATOM     11  O4  MMA E   1      28.023 -28.849   7.213  0.00  0.00    +0.000 OA
ATOM     12  O5  MMA E   1      30.014 -30.140  10.069  0.00  0.00    +0.000 OA
ENDROOT
BRANCH   5   6
ATOM      6  C6  MMA E   1      30.498 -30.482   7.758  0.00  0.00    +0.000 C 
ATOM     13  O6  MMA E   1      31.637 -29.615   7.952  0.00  0.00    +0.000 OA
ENDBRANCH   5   6
BRANCH   1   8
ATOM      7  C7  MMA E   1      28.472 -32.104  11.411  0.00  0.00    +0.000 C 
ATOM      8  O1  MMA E   1      28.052 -30.814  11.058  0.00  0.00    +0.000 OA
ENDBRANCH   1   8
BRANCH   3  10
ATOM     10  O3  MMA E   1      27.288 -26.992   9.381  0.00  0.00    +0.000 OA
BRANCH  10  14
ATOM     14  C1  MAN E   2      25.892 -26.953   9.122  0.00  0.00    +0.000 C 
ATOM     15  C2  MAN E   2      25.471 -25.530   8.728  0.00  0.00    +0.000 C 
ATOM     16  C3  MAN E   2      25.622 -24.607   9.928  0.00  0.00    +0.000 C 
ATOM     17  C4  MAN E   2      24.827 -25.122  11.134  0.00  0.00    +0.000 C 
ATOM     18  C5  MAN E   2      25.171 -26.594  11.415  0.00  0.00    +0.000 C 
ATOM     20  O2  MAN E   2      24.127 -25.517   8.258  0.00  0.00    +0.000 OA
ATOM     21  O3  MAN E   2      25.197 -23.302   9.591  0.00  0.00    +0.000 OA
ATOM     22  O4  MAN E   2      25.154 -24.335  12.279  0.00  0.00    +0.000 OA
ATOM     23  O5  MAN E   2      25.078 -27.406  10.213  0.00  0.00    +0.000 OA
BRANCH  18  19
ATOM     19  C6  MAN E   2      24.283 -27.238  12.479  0.00  0.00    +0.000 C 
ATOM     24  O6  MAN E   2      22.900 -27.096  12.185  0.00  0.00    +0.000 OA
ENDBRANCH  18  19
ENDBRANCH  10  14
ENDBRANCH   3  10
TORSDOF 5
