REMARK  Name = 439336
REMARK  18 active torsions:
REMARK  status: ('A' for Active; 'I' for Inactive)
REMARK    1  A    between atoms: O_1  and  C_17
REMARK    2  A    between atoms: O_1  and  C_20
REMARK    3  A    between atoms: O_4  and  C_25
REMARK    4  A    between atoms: O_4  and  C_28
REMARK    5  A    between atoms: O_6  and  C_19
REMARK    6  A    between atoms: O_7  and  C_21
REMARK    7  A    between atoms: O_8  and  C_22
REMARK    8  A    between atoms: O_9  and  C_23
REMARK    9  A    between atoms: O_10  and  C_24
REMARK   10  A    between atoms: O_11  and  C_26
REMARK   11  A    between atoms: O_12  and  C_29
REMARK   12  A    between atoms: O_13  and  C_30
REMARK   13  A    between atoms: O_14  and  C_31
REMARK   14  A    between atoms: O_15  and  C_33
REMARK   15  A    between atoms: O_16  and  C_34
REMARK   16  A    between atoms: C_18  and  C_25
REMARK   17  A    between atoms: C_27  and  C_33
REMARK   18  A    between atoms: C_32  and  C_34
REMARK                            x       y       z     vdW  Elec       q    Type
REMARK                         _______ _______ _______ _____ _____    ______ ____
ROOT
ATOM      2  O   UNL     1      -3.448   0.803  -0.913  0.00  0.00    +0.000 OA
ATOM     17  C   UNL     1      -1.197   1.698  -0.589  0.00  0.00    +0.000 C 
ATOM     18  C   UNL     1      -2.164   0.960  -1.525  0.00  0.00    +0.000 C 
ATOM     19  C   UNL     1      -1.808   3.023  -0.126  0.00  0.00    +0.000 C 
ATOM     21  C   UNL     1      -3.218   2.810   0.425  0.00  0.00    +0.000 C 
ATOM     26  C   UNL     1      -4.065   2.054  -0.598  0.00  0.00    +0.000 C 
ENDROOT
BRANCH  19   6
ATOM      6  O   UNL     1      -0.973   3.599   0.876  0.00  0.00    +0.000 OA
ATOM     35  H   UNL     1      -1.388   4.432   1.158  0.00  0.00    +0.000 HD
ENDBRANCH  19   6
BRANCH  21   7
ATOM      7  O   UNL     1      -3.152   2.025   1.619  0.00  0.00    +0.000 OA
ATOM     36  H   UNL     1      -2.958   1.105   1.373  0.00  0.00    +0.000 HD
ENDBRANCH  21   7
BRANCH  26  11
ATOM     11  O   UNL     1      -5.365   1.850  -0.053  0.00  0.00    +0.000 OA
ATOM     40  H   UNL     1      -5.975   1.743  -0.803  0.00  0.00    +0.000 HD
ENDBRANCH  26  11
BRANCH  17   1
ATOM      1  O   UNL     1       0.021   1.955  -1.282  0.00  0.00    +0.000 OA
BRANCH   1  20
ATOM      3  O   UNL     1       1.267   1.817   0.702  0.00  0.00    +0.000 OA
ATOM     20  C   UNL     1       1.129   1.335  -0.637  0.00  0.00    +0.000 C 
ATOM     22  C   UNL     1       2.395   1.641  -1.435  0.00  0.00    +0.000 C 
ATOM     23  C   UNL     1       3.605   1.004  -0.752  0.00  0.00    +0.000 C 
ATOM     24  C   UNL     1       3.677   1.414   0.721  0.00  0.00    +0.000 C 
ATOM     27  C   UNL     1       2.328   1.171   1.412  0.00  0.00    +0.000 C 
BRANCH  22   8
ATOM      8  O   UNL     1       2.563   3.061  -1.481  0.00  0.00    +0.000 OA
ATOM     37  H   UNL     1       2.449   3.412  -0.582  0.00  0.00    +0.000 HD
ENDBRANCH  22   8
BRANCH  23   9
ATOM      9  O   UNL     1       4.805   1.403  -1.409  0.00  0.00    +0.000 OA
ATOM     38  H   UNL     1       4.729   1.139  -2.342  0.00  0.00    +0.000 HD
ENDBRANCH  23   9
BRANCH  24  10
ATOM     10  O   UNL     1       4.684   0.646   1.377  0.00  0.00    +0.000 OA
ATOM     39  H   UNL     1       4.431  -0.291   1.320  0.00  0.00    +0.000 HD
ENDBRANCH  24  10
BRANCH  27  33
ATOM     33  C   UNL     1       2.323   1.714   2.838  0.00  0.00    +0.000 C 
BRANCH  33  15
ATOM     15  O   UNL     1       1.052   1.467   3.409  0.00  0.00    +0.000 OA
ATOM     44  H   UNL     1       1.069   1.825   4.314  0.00  0.00    +0.000 HD
ENDBRANCH  33  15
ENDBRANCH  27  33
ENDBRANCH   1  20
ENDBRANCH  17   1
BRANCH  18  25
ATOM     25  C   UNL     1      -1.650  -0.432  -1.878  0.00  0.00    +0.000 C 
BRANCH  25   4
ATOM      4  O   UNL     1      -1.502  -1.174  -0.681  0.00  0.00    +0.000 OA
BRANCH   4  28
ATOM      5  O   UNL     1      -0.212  -3.002  -1.452  0.00  0.00    +0.000 OA
ATOM     28  C   UNL     1      -1.474  -2.579  -0.930  0.00  0.00    +0.000 C 
ATOM     29  C   UNL     1      -1.810  -3.348   0.349  0.00  0.00    +0.000 C 
ATOM     30  C   UNL     1      -0.691  -3.196   1.379  0.00  0.00    +0.000 C 
ATOM     31  C   UNL     1       0.655  -3.583   0.759  0.00  0.00    +0.000 C 
ATOM     32  C   UNL     1       0.883  -2.804  -0.543  0.00  0.00    +0.000 C 
BRANCH  29  12
ATOM     12  O   UNL     1      -3.039  -2.864   0.880  0.00  0.00    +0.000 OA
ATOM     41  H   UNL     1      -3.720  -2.975   0.194  0.00  0.00    +0.000 HD
ENDBRANCH  29  12
BRANCH  30  13
ATOM     13  O   UNL     1      -0.968  -4.030   2.501  0.00  0.00    +0.000 OA
ATOM     42  H   UNL     1      -0.234  -3.927   3.130  0.00  0.00    +0.000 HD
ENDBRANCH  30  13
BRANCH  31  14
ATOM     14  O   UNL     1       0.663  -4.982   0.468  0.00  0.00    +0.000 OA
ATOM     43  H   UNL     1       0.091  -5.139  -0.302  0.00  0.00    +0.000 HD
ENDBRANCH  31  14
BRANCH  32  34
ATOM     34  C   UNL     1       2.154  -3.239  -1.265  0.00  0.00    +0.000 C 
BRANCH  34  16
ATOM     16  O   UNL     1       2.533  -2.215  -2.167  0.00  0.00    +0.000 OA
ATOM     45  H   UNL     1       3.350  -2.507  -2.606  0.00  0.00    +0.000 HD
ENDBRANCH  34  16
ENDBRANCH  32  34
ENDBRANCH   4  28
ENDBRANCH  25   4
ENDBRANCH  18  25
TORSDOF 18
