MODEL 1
REMARK VINA RESULT:      -6.7      0.000      0.000
REMARK  10 active torsions:
REMARK  status: ('A' for Active; 'I' for Inactive)
REMARK    1  A    between atoms: O_1  and  C_12 
REMARK    2  A    between atoms: O_2  and  C_13 
REMARK    3  A    between atoms: O_3  and  C_18 
REMARK    4  A    between atoms: O_4  and  C_19 
REMARK    5  A    between atoms: C_7  and  C_16 
REMARK    6  A    between atoms: C_8  and  C_17 
REMARK    7  A    between atoms: C_9  and  C_20 
REMARK    8  A    between atoms: C_9  and  C_21 
REMARK    9  A    between atoms: C_20  and  C_24 
REMARK   10  A    between atoms: C_21  and  C_25 
ROOT
HETATM    1  O   UNL     1     -13.255  15.417  73.282  1.00  0.00    -0.353 OA
HETATM    2  C   UNL     1     -12.421  16.096  74.219  1.00  0.00     0.210 C 
ENDROOT
BRANCH   1   3
HETATM    3  C   UNL     1     -12.685  15.042  72.103  1.00  0.00     0.102 A 
HETATM    4  C   UNL     1     -11.939  15.970  71.377  1.00  0.00     0.051 A 
HETATM    5  C   UNL     1     -11.360  15.586  70.177  1.00  0.00    -0.033 A 
HETATM    6  C   UNL     1     -11.507  14.300  69.685  1.00  0.00     0.014 A 
HETATM    7  C   UNL     1     -12.253  13.371  70.412  1.00  0.00     0.040 A 
HETATM    8  C   UNL     1     -12.841  13.743  71.621  1.00  0.00     0.099 A 
BRANCH   5   9
HETATM    9  C   UNL     1     -10.571  16.566  69.410  1.00  0.00     0.015 C 
HETATM   10  C   UNL     1     -10.997  17.184  68.300  1.00  0.00     0.051 C 
BRANCH  10  11
HETATM   11  C   UNL     1     -10.112  18.154  67.589  1.00  0.00     0.156 C 
HETATM   12  O   UNL     1      -9.961  19.304  67.991  1.00  0.00    -0.293 OA
BRANCH  11  13
HETATM   13  C   UNL     1      -9.458  17.641  66.321  1.00  0.00     0.165 C 
BRANCH  13  14
HETATM   14  C   UNL     1     -10.306  16.699  65.488  1.00  0.00     0.156 C 
HETATM   15  O   UNL     1     -11.117  17.101  64.658  1.00  0.00    -0.293 OA
BRANCH  14  16
HETATM   16  C   UNL     1     -10.062  15.243  65.705  1.00  0.00     0.051 C 
HETATM   17  C   UNL     1     -10.533  14.338  64.835  1.00  0.00     0.015 C 
BRANCH  17  18
HETATM   18  C   UNL     1     -10.356  12.882  64.964  1.00  0.00    -0.033 A 
HETATM   19  C   UNL     1     -10.207  12.324  66.223  1.00  0.00     0.051 A 
HETATM   20  C   UNL     1     -10.038  10.945  66.345  1.00  0.00     0.102 A 
HETATM   21  C   UNL     1     -10.021  10.142  65.205  1.00  0.00     0.099 A 
HETATM   22  C   UNL     1     -10.173  10.717  63.943  1.00  0.00     0.040 A 
HETATM   23  C   UNL     1     -10.341  12.097  63.822  1.00  0.00     0.014 A 
BRANCH  20  24
HETATM   24  O   UNL     1      -9.893  10.394  67.582  1.00  0.00    -0.353 OA
HETATM   25  C   UNL     1     -11.070  10.262  68.376  1.00  0.00     0.210 C 
ENDBRANCH  20  24
BRANCH  21  26
HETATM   26  O   UNL     1      -9.860   8.793  65.310  1.00  0.00    -0.358 OA
HETATM   27  H   UNL     1      -9.229   8.605  66.025  1.00  0.00     0.218 HD
ENDBRANCH  21  26
ENDBRANCH  17  18
ENDBRANCH  14  16
ENDBRANCH  13  14
ENDBRANCH  11  13
ENDBRANCH  10  11
ENDBRANCH   5   9
BRANCH   8  28
HETATM   28  O   UNL     1     -13.569  12.828  72.321  1.00  0.00    -0.358 OA
HETATM   29  H   UNL     1     -13.167  12.726  73.201  1.00  0.00     0.218 HD
ENDBRANCH   8  28
ENDBRANCH   1   3
TORSDOF 10
ENDMDL
MODEL 2
REMARK VINA RESULT:      -6.4      1.782      3.005
REMARK  10 active torsions:
REMARK  status: ('A' for Active; 'I' for Inactive)
REMARK    1  A    between atoms: O_1  and  C_12 
REMARK    2  A    between atoms: O_2  and  C_13 
REMARK    3  A    between atoms: O_3  and  C_18 
REMARK    4  A    between atoms: O_4  and  C_19 
REMARK    5  A    between atoms: C_7  and  C_16 
REMARK    6  A    between atoms: C_8  and  C_17 
REMARK    7  A    between atoms: C_9  and  C_20 
REMARK    8  A    between atoms: C_9  and  C_21 
REMARK    9  A    between atoms: C_20  and  C_24 
REMARK   10  A    between atoms: C_21  and  C_25 
ROOT
HETATM    1  O   UNL     1     -12.460  11.560  70.702  1.00  0.00    -0.353 OA
HETATM    2  C   UNL     1     -11.715  11.131  69.564  1.00  0.00     0.210 C 
ENDROOT
BRANCH   1   3
HETATM    3  C   UNL     1     -12.607  12.904  70.876  1.00  0.00     0.102 A 
HETATM    4  C   UNL     1     -11.995  13.782  69.980  1.00  0.00     0.051 A 
HETATM    5  C   UNL     1     -12.147  15.147  70.161  1.00  0.00    -0.033 A 
HETATM    6  C   UNL     1     -12.892  15.659  71.210  1.00  0.00     0.014 A 
HETATM    7  C   UNL     1     -13.503  14.780  72.105  1.00  0.00     0.040 A 
HETATM    8  C   UNL     1     -13.361  13.403  71.937  1.00  0.00     0.099 A 
BRANCH   5   9
HETATM    9  C   UNL     1     -11.502  16.076  69.215  1.00  0.00     0.015 C 
HETATM   10  C   UNL     1     -10.560  16.968  69.548  1.00  0.00     0.051 C 
BRANCH  10  11
HETATM   11  C   UNL     1      -9.977  17.874  68.513  1.00  0.00     0.156 C 
HETATM   12  O   UNL     1     -10.687  18.539  67.764  1.00  0.00    -0.293 OA
BRANCH  11  13
HETATM   13  C   UNL     1      -8.464  17.877  68.419  1.00  0.00     0.165 C 
BRANCH  13  14
HETATM   14  C   UNL     1      -7.874  16.911  67.409  1.00  0.00     0.156 C 
HETATM   15  O   UNL     1      -6.713  16.995  67.016  1.00  0.00    -0.293 OA
BRANCH  14  16
HETATM   16  C   UNL     1      -8.780  15.816  66.953  1.00  0.00     0.051 C 
HETATM   17  C   UNL     1      -9.425  15.912  65.782  1.00  0.00     0.015 C 
BRANCH  17  18
HETATM   18  C   UNL     1     -10.347  14.894  65.248  1.00  0.00    -0.033 A 
HETATM   19  C   UNL     1      -9.967  13.562  65.259  1.00  0.00     0.051 A 
HETATM   20  C   UNL     1     -10.840  12.599  64.752  1.00  0.00     0.102 A 
HETATM   21  C   UNL     1     -12.080  12.982  64.242  1.00  0.00     0.099 A 
HETATM   22  C   UNL     1     -12.449  14.327  64.238  1.00  0.00     0.040 A 
HETATM   23  C   UNL     1     -11.576  15.291  64.745  1.00  0.00     0.014 A 
BRANCH  20  24
HETATM   24  O   UNL     1     -10.470  11.288  64.762  1.00  0.00    -0.353 OA
HETATM   25  C   UNL     1     -10.401  10.643  66.032  1.00  0.00     0.210 C 
ENDBRANCH  20  24
BRANCH  21  26
HETATM   26  O   UNL     1     -12.943  12.051  63.746  1.00  0.00    -0.358 OA
HETATM   27  H   UNL     1     -13.536  12.478  63.105  1.00  0.00     0.218 HD
ENDBRANCH  21  26
ENDBRANCH  17  18
ENDBRANCH  14  16
ENDBRANCH  13  14
ENDBRANCH  11  13
ENDBRANCH  10  11
ENDBRANCH   5   9
BRANCH   8  28
HETATM   28  O   UNL     1     -13.961  12.555  72.818  1.00  0.00    -0.358 OA
HETATM   29  H   UNL     1     -14.849  12.898  73.016  1.00  0.00     0.218 HD
ENDBRANCH   8  28
ENDBRANCH   1   3
TORSDOF 10
ENDMDL
MODEL 3
REMARK VINA RESULT:      -6.2      2.920      6.564
REMARK  10 active torsions:
REMARK  status: ('A' for Active; 'I' for Inactive)
REMARK    1  A    between atoms: O_1  and  C_12 
REMARK    2  A    between atoms: O_2  and  C_13 
REMARK    3  A    between atoms: O_3  and  C_18 
REMARK    4  A    between atoms: O_4  and  C_19 
REMARK    5  A    between atoms: C_7  and  C_16 
REMARK    6  A    between atoms: C_8  and  C_17 
REMARK    7  A    between atoms: C_9  and  C_20 
REMARK    8  A    between atoms: C_9  and  C_21 
REMARK    9  A    between atoms: C_20  and  C_24 
REMARK   10  A    between atoms: C_21  and  C_25 
ROOT
HETATM    1  O   UNL     1     -11.954   7.322  71.712  1.00  0.00    -0.353 OA
HETATM    2  C   UNL     1     -11.476   6.457  70.683  1.00  0.00     0.210 C 
ENDROOT
BRANCH   1   3
HETATM    3  C   UNL     1     -12.114   8.637  71.392  1.00  0.00     0.102 A 
HETATM    4  C   UNL     1     -11.396   9.174  70.324  1.00  0.00     0.051 A 
HETATM    5  C   UNL     1     -11.561  10.512  70.001  1.00  0.00    -0.033 A 
HETATM    6  C   UNL     1     -12.424  11.326  70.717  1.00  0.00     0.014 A 
HETATM    7  C   UNL     1     -13.142  10.787  71.785  1.00  0.00     0.040 A 
HETATM    8  C   UNL     1     -12.987   9.443  72.122  1.00  0.00     0.099 A 
BRANCH   5   9
HETATM    9  C   UNL     1     -10.804  11.081  68.872  1.00  0.00     0.015 C 
HETATM   10  C   UNL     1     -11.245  11.130  67.608  1.00  0.00     0.051 C 
BRANCH  10  11
HETATM   11  C   UNL     1     -10.392  11.719  66.533  1.00  0.00     0.156 C 
HETATM   12  O   UNL     1      -9.176  11.832  66.662  1.00  0.00    -0.293 OA
BRANCH  11  13
HETATM   13  C   UNL     1     -11.129  12.207  65.301  1.00  0.00     0.165 C 
BRANCH  13  14
HETATM   14  C   UNL     1     -11.989  13.439  65.505  1.00  0.00     0.156 C 
HETATM   15  O   UNL     1     -13.147  13.510  65.101  1.00  0.00    -0.293 OA
BRANCH  14  16
HETATM   16  C   UNL     1     -11.356  14.552  66.271  1.00  0.00     0.051 C 
HETATM   17  C   UNL     1     -10.473  15.368  65.679  1.00  0.00     0.015 C 
BRANCH  17  18
HETATM   18  C   UNL     1      -9.786  16.487  66.348  1.00  0.00    -0.033 A 
HETATM   19  C   UNL     1      -8.418  16.636  66.189  1.00  0.00     0.051 A 
HETATM   20  C   UNL     1      -7.768  17.694  66.824  1.00  0.00     0.102 A 
HETATM   21  C   UNL     1      -8.495  18.589  67.608  1.00  0.00     0.099 A 
HETATM   22  C   UNL     1      -9.873  18.426  67.759  1.00  0.00     0.040 A 
HETATM   23  C   UNL     1     -10.523  17.367  67.124  1.00  0.00     0.014 A 
BRANCH  20  24
HETATM   24  O   UNL     1      -6.423  17.844  66.669  1.00  0.00    -0.353 OA
HETATM   25  C   UNL     1      -5.975  18.488  65.477  1.00  0.00     0.210 C 
ENDBRANCH  20  24
BRANCH  21  26
HETATM   26  O   UNL     1      -7.873  19.628  68.232  1.00  0.00    -0.358 OA
HETATM   27  H   UNL     1      -7.160  19.280  68.793  1.00  0.00     0.218 HD
ENDBRANCH  21  26
ENDBRANCH  17  18
ENDBRANCH  14  16
ENDBRANCH  13  14
ENDBRANCH  11  13
ENDBRANCH  10  11
ENDBRANCH   5   9
BRANCH   8  28
HETATM   28  O   UNL     1     -13.692   8.929  73.168  1.00  0.00    -0.358 OA
HETATM   29  H   UNL     1     -14.047   8.063  72.902  1.00  0.00     0.218 HD
ENDBRANCH   8  28
ENDBRANCH   1   3
TORSDOF 10
ENDMDL
MODEL 4
REMARK VINA RESULT:      -6.2      1.384      2.164
REMARK  10 active torsions:
REMARK  status: ('A' for Active; 'I' for Inactive)
REMARK    1  A    between atoms: O_1  and  C_12 
REMARK    2  A    between atoms: O_2  and  C_13 
REMARK    3  A    between atoms: O_3  and  C_18 
REMARK    4  A    between atoms: O_4  and  C_19 
REMARK    5  A    between atoms: C_7  and  C_16 
REMARK    6  A    between atoms: C_8  and  C_17 
REMARK    7  A    between atoms: C_9  and  C_20 
REMARK    8  A    between atoms: C_9  and  C_21 
REMARK    9  A    between atoms: C_20  and  C_24 
REMARK   10  A    between atoms: C_21  and  C_25 
ROOT
HETATM    1  O   UNL     1     -13.506  14.328  72.906  1.00  0.00    -0.353 OA
HETATM    2  C   UNL     1     -13.491  15.705  73.277  1.00  0.00     0.210 C 
ENDROOT
BRANCH   1   3
HETATM    3  C   UNL     1     -12.974  14.007  71.693  1.00  0.00     0.102 A 
HETATM    4  C   UNL     1     -12.596  15.026  70.819  1.00  0.00     0.051 A 
HETATM    5  C   UNL     1     -12.056  14.696  69.586  1.00  0.00    -0.033 A 
HETATM    6  C   UNL     1     -11.883  13.376  69.205  1.00  0.00     0.014 A 
HETATM    7  C   UNL     1     -12.261  12.357  70.080  1.00  0.00     0.040 A 
HETATM    8  C   UNL     1     -12.806  12.673  71.324  1.00  0.00     0.099 A 
BRANCH   5   9
HETATM    9  C   UNL     1     -11.656  15.772  68.662  1.00  0.00     0.015 C 
HETATM   10  C   UNL     1     -10.739  16.710  68.938  1.00  0.00     0.051 C 
BRANCH  10  11
HETATM   11  C   UNL     1     -10.414  17.766  67.933  1.00  0.00     0.156 C 
HETATM   12  O   UNL     1     -10.385  18.956  68.234  1.00  0.00    -0.293 OA
BRANCH  11  13
HETATM   13  C   UNL     1     -10.173  17.277  66.519  1.00  0.00     0.165 C 
BRANCH  13  14
HETATM   14  C   UNL     1      -9.025  16.299  66.358  1.00  0.00     0.156 C 
HETATM   15  O   UNL     1      -7.850  16.631  66.496  1.00  0.00    -0.293 OA
BRANCH  14  16
HETATM   16  C   UNL     1      -9.412  14.888  66.063  1.00  0.00     0.051 C 
HETATM   17  C   UNL     1      -8.987  13.889  66.849  1.00  0.00     0.015 C 
BRANCH  17  18
HETATM   18  C   UNL     1      -9.303  12.465  66.640  1.00  0.00    -0.033 A 
HETATM   19  C   UNL     1      -9.717  12.039  65.389  1.00  0.00     0.051 A 
HETATM   20  C   UNL     1     -10.017  10.691  65.191  1.00  0.00     0.102 A 
HETATM   21  C   UNL     1      -9.899   9.789  66.247  1.00  0.00     0.099 A 
HETATM   22  C   UNL     1      -9.482  10.233  67.502  1.00  0.00     0.040 A 
HETATM   23  C   UNL     1      -9.181  11.581  67.700  1.00  0.00     0.014 A 
BRANCH  20  24
HETATM   24  O   UNL     1     -10.423  10.268  63.961  1.00  0.00    -0.353 OA
HETATM   25  C   UNL     1      -9.477  10.363  62.898  1.00  0.00     0.210 C 
ENDBRANCH  20  24
BRANCH  21  26
HETATM   26  O   UNL     1     -10.188   8.469  66.067  1.00  0.00    -0.358 OA
HETATM   27  H   UNL     1     -10.942   8.230  66.631  1.00  0.00     0.218 HD
ENDBRANCH  21  26
ENDBRANCH  17  18
ENDBRANCH  14  16
ENDBRANCH  13  14
ENDBRANCH  11  13
ENDBRANCH  10  11
ENDBRANCH   5   9
BRANCH   8  28
HETATM   28  O   UNL     1     -13.172  11.670  72.169  1.00  0.00    -0.358 OA
HETATM   29  H   UNL     1     -13.163  10.833  71.674  1.00  0.00     0.218 HD
ENDBRANCH   8  28
ENDBRANCH   1   3
TORSDOF 10
ENDMDL
MODEL 5
REMARK VINA RESULT:      -6.0      1.780      3.023
REMARK  10 active torsions:
REMARK  status: ('A' for Active; 'I' for Inactive)
REMARK    1  A    between atoms: O_1  and  C_12 
REMARK    2  A    between atoms: O_2  and  C_13 
REMARK    3  A    between atoms: O_3  and  C_18 
REMARK    4  A    between atoms: O_4  and  C_19 
REMARK    5  A    between atoms: C_7  and  C_16 
REMARK    6  A    between atoms: C_8  and  C_17 
REMARK    7  A    between atoms: C_9  and  C_20 
REMARK    8  A    between atoms: C_9  and  C_21 
REMARK    9  A    between atoms: C_20  and  C_24 
REMARK   10  A    between atoms: C_21  and  C_25 
ROOT
HETATM    1  O   UNL     1     -12.377  11.556  70.612  1.00  0.00    -0.353 OA
HETATM    2  C   UNL     1     -11.663  11.060  69.481  1.00  0.00     0.210 C 
ENDROOT
BRANCH   1   3
HETATM    3  C   UNL     1     -12.511  12.908  70.716  1.00  0.00     0.102 A 
HETATM    4  C   UNL     1     -11.893  13.732  69.776  1.00  0.00     0.051 A 
HETATM    5  C   UNL     1     -12.031  15.107  69.885  1.00  0.00    -0.033 A 
HETATM    6  C   UNL     1     -12.770  15.679  70.907  1.00  0.00     0.014 A 
HETATM    7  C   UNL     1     -13.388  14.854  71.848  1.00  0.00     0.040 A 
HETATM    8  C   UNL     1     -13.258  13.468  71.751  1.00  0.00     0.099 A 
BRANCH   5   9
HETATM    9  C   UNL     1     -11.379  15.979  68.892  1.00  0.00     0.015 C 
HETATM   10  C   UNL     1     -10.553  16.990  69.193  1.00  0.00     0.051 C 
BRANCH  10  11
HETATM   11  C   UNL     1      -9.952  17.823  68.108  1.00  0.00     0.156 C 
HETATM   12  O   UNL     1     -10.619  18.226  67.159  1.00  0.00    -0.293 OA
BRANCH  11  13
HETATM   13  C   UNL     1      -8.466  18.093  68.234  1.00  0.00     0.165 C 
BRANCH  13  14
HETATM   14  C   UNL     1      -7.566  17.128  67.487  1.00  0.00     0.156 C 
HETATM   15  O   UNL     1      -6.349  17.281  67.414  1.00  0.00    -0.293 OA
BRANCH  14  16
HETATM   16  C   UNL     1      -8.245  15.945  66.879  1.00  0.00     0.051 C 
HETATM   17  C   UNL     1      -8.164  14.741  67.463  1.00  0.00     0.015 C 
BRANCH  17  18
HETATM   18  C   UNL     1      -8.787  13.514  66.939  1.00  0.00    -0.033 A 
HETATM   19  C   UNL     1     -10.058  13.578  66.391  1.00  0.00     0.051 A 
HETATM   20  C   UNL     1     -10.648  12.414  65.896  1.00  0.00     0.102 A 
HETATM   21  C   UNL     1      -9.959  11.203  65.956  1.00  0.00     0.099 A 
HETATM   22  C   UNL     1      -8.680  11.155  66.512  1.00  0.00     0.040 A 
HETATM   23  C   UNL     1      -8.090  12.318  67.007  1.00  0.00     0.014 A 
BRANCH  20  24
HETATM   24  O   UNL     1     -11.896  12.474  65.355  1.00  0.00    -0.353 OA
HETATM   25  C   UNL     1     -12.017  13.075  64.066  1.00  0.00     0.210 C 
ENDBRANCH  20  24
BRANCH  21  26
HETATM   26  O   UNL     1     -10.523  10.061  65.475  1.00  0.00    -0.358 OA
HETATM   27  H   UNL     1     -10.126   9.297  65.927  1.00  0.00     0.218 HD
ENDBRANCH  21  26
ENDBRANCH  17  18
ENDBRANCH  14  16
ENDBRANCH  13  14
ENDBRANCH  11  13
ENDBRANCH  10  11
ENDBRANCH   5   9
BRANCH   8  28
HETATM   28  O   UNL     1     -13.865  12.673  72.676  1.00  0.00    -0.358 OA
HETATM   29  H   UNL     1     -14.812  12.897  72.698  1.00  0.00     0.218 HD
ENDBRANCH   8  28
ENDBRANCH   1   3
TORSDOF 10
ENDMDL
MODEL 6
REMARK VINA RESULT:      -6.0      3.431      6.500
REMARK  10 active torsions:
REMARK  status: ('A' for Active; 'I' for Inactive)
REMARK    1  A    between atoms: O_1  and  C_12 
REMARK    2  A    between atoms: O_2  and  C_13 
REMARK    3  A    between atoms: O_3  and  C_18 
REMARK    4  A    between atoms: O_4  and  C_19 
REMARK    5  A    between atoms: C_7  and  C_16 
REMARK    6  A    between atoms: C_8  and  C_17 
REMARK    7  A    between atoms: C_9  and  C_20 
REMARK    8  A    between atoms: C_9  and  C_21 
REMARK    9  A    between atoms: C_20  and  C_24 
REMARK   10  A    between atoms: C_21  and  C_25 
ROOT
HETATM    1  O   UNL     1     -12.738  10.937  71.517  1.00  0.00    -0.353 OA
HETATM    2  C   UNL     1     -12.217   9.879  70.715  1.00  0.00     0.210 C 
ENDROOT
BRANCH   1   3
HETATM    3  C   UNL     1     -12.616  12.203  71.028  1.00  0.00     0.102 A 
HETATM    4  C   UNL     1     -11.952  12.409  69.818  1.00  0.00     0.051 A 
HETATM    5  C   UNL     1     -11.829  13.698  69.324  1.00  0.00    -0.033 A 
HETATM    6  C   UNL     1     -12.351  14.785  70.005  1.00  0.00     0.014 A 
HETATM    7  C   UNL     1     -13.015  14.578  71.215  1.00  0.00     0.040 A 
HETATM    8  C   UNL     1     -13.147  13.287  71.725  1.00  0.00     0.099 A 
BRANCH   5   9
HETATM    9  C   UNL     1     -11.129  13.917  68.046  1.00  0.00     0.015 C 
HETATM   10  C   UNL     1     -11.668  14.517  66.976  1.00  0.00     0.051 C 
BRANCH  10  11
HETATM   11  C   UNL     1     -10.875  14.679  65.721  1.00  0.00     0.156 C 
HETATM   12  O   UNL     1     -11.361  14.456  64.616  1.00  0.00    -0.293 OA
BRANCH  11  13
HETATM   13  C   UNL     1      -9.427  15.088  65.907  1.00  0.00     0.165 C 
BRANCH  13  14
HETATM   14  C   UNL     1      -9.205  16.536  66.297  1.00  0.00     0.156 C 
HETATM   15  O   UNL     1      -9.793  17.465  65.747  1.00  0.00    -0.293 OA
BRANCH  14  16
HETATM   16  C   UNL     1      -8.258  16.766  67.427  1.00  0.00     0.051 C 
HETATM   17  C   UNL     1      -7.898  18.012  67.769  1.00  0.00     0.015 C 
BRANCH  17  18
HETATM   18  C   UNL     1      -6.965  18.344  68.859  1.00  0.00    -0.033 A 
HETATM   19  C   UNL     1      -6.096  17.373  69.329  1.00  0.00     0.051 A 
HETATM   20  C   UNL     1      -5.213  17.687  70.361  1.00  0.00     0.102 A 
HETATM   21  C   UNL     1      -5.210  18.970  70.909  1.00  0.00     0.099 A 
HETATM   22  C   UNL     1      -6.090  19.938  70.425  1.00  0.00     0.040 A 
HETATM   23  C   UNL     1      -6.974  19.623  69.393  1.00  0.00     0.014 A 
BRANCH  20  24
HETATM   24  O   UNL     1      -4.357  16.735  70.825  1.00  0.00    -0.353 OA
HETATM   25  C   UNL     1      -4.927  15.650  71.555  1.00  0.00     0.210 C 
ENDBRANCH  20  24
BRANCH  21  26
HETATM   26  O   UNL     1      -4.351  19.291  71.917  1.00  0.00    -0.358 OA
HETATM   27  H   UNL     1      -4.181  18.498  72.453  1.00  0.00     0.218 HD
ENDBRANCH  21  26
ENDBRANCH  17  18
ENDBRANCH  14  16
ENDBRANCH  13  14
ENDBRANCH  11  13
ENDBRANCH  10  11
ENDBRANCH   5   9
BRANCH   8  28
HETATM   28  O   UNL     1     -13.797  13.098  72.908  1.00  0.00    -0.358 OA
HETATM   29  H   UNL     1     -13.199  12.626  73.513  1.00  0.00     0.218 HD
ENDBRANCH   8  28
ENDBRANCH   1   3
TORSDOF 10
ENDMDL
MODEL 7
REMARK VINA RESULT:      -5.9      1.527      7.040
REMARK  10 active torsions:
REMARK  status: ('A' for Active; 'I' for Inactive)
REMARK    1  A    between atoms: O_1  and  C_12 
REMARK    2  A    between atoms: O_2  and  C_13 
REMARK    3  A    between atoms: O_3  and  C_18 
REMARK    4  A    between atoms: O_4  and  C_19 
REMARK    5  A    between atoms: C_7  and  C_16 
REMARK    6  A    between atoms: C_8  and  C_17 
REMARK    7  A    between atoms: C_9  and  C_20 
REMARK    8  A    between atoms: C_9  and  C_21 
REMARK    9  A    between atoms: C_20  and  C_24 
REMARK   10  A    between atoms: C_21  and  C_25 
ROOT
HETATM    1  O   UNL     1      -8.123  11.073  66.741  1.00  0.00    -0.353 OA
HETATM    2  C   UNL     1      -7.136  11.929  67.312  1.00  0.00     0.210 C 
ENDROOT
BRANCH   1   3
HETATM    3  C   UNL     1      -9.379  11.583  66.599  1.00  0.00     0.102 A 
HETATM    4  C   UNL     1     -10.118  11.909  67.737  1.00  0.00     0.051 A 
HETATM    5  C   UNL     1     -11.395  12.427  67.589  1.00  0.00    -0.033 A 
HETATM    6  C   UNL     1     -11.952  12.629  66.337  1.00  0.00     0.014 A 
HETATM    7  C   UNL     1     -11.212  12.303  65.200  1.00  0.00     0.040 A 
HETATM    8  C   UNL     1      -9.925  11.781  65.332  1.00  0.00     0.099 A 
BRANCH   5   9
HETATM    9  C   UNL     1     -12.177  12.772  68.790  1.00  0.00     0.015 C 
HETATM   10  C   UNL     1     -11.887  12.359  70.031  1.00  0.00     0.051 C 
BRANCH  10  11
HETATM   11  C   UNL     1     -12.753  12.757  71.181  1.00  0.00     0.156 C 
HETATM   12  O   UNL     1     -13.148  11.937  72.006  1.00  0.00    -0.293 OA
BRANCH  11  13
HETATM   13  C   UNL     1     -13.147  14.219  71.232  1.00  0.00     0.165 C 
BRANCH  13  14
HETATM   14  C   UNL     1     -12.135  15.142  71.885  1.00  0.00     0.156 C 
HETATM   15  O   UNL     1     -12.018  15.236  73.104  1.00  0.00    -0.293 OA
BRANCH  14  16
HETATM   16  C   UNL     1     -11.252  15.901  70.951  1.00  0.00     0.051 C 
HETATM   17  C   UNL     1     -11.494  15.894  69.632  1.00  0.00     0.015 C 
BRANCH  17  18
HETATM   18  C   UNL     1     -10.679  16.600  68.628  1.00  0.00    -0.033 A 
HETATM   19  C   UNL     1     -10.991  16.467  67.285  1.00  0.00     0.051 A 
HETATM   20  C   UNL     1     -10.218  17.134  66.334  1.00  0.00     0.102 A 
HETATM   21  C   UNL     1      -9.144  17.925  66.741  1.00  0.00     0.099 A 
HETATM   22  C   UNL     1      -8.842  18.049  68.097  1.00  0.00     0.040 A 
HETATM   23  C   UNL     1      -9.614  17.382  69.047  1.00  0.00     0.014 A 
BRANCH  20  24
HETATM   24  O   UNL     1     -10.524  17.007  65.013  1.00  0.00    -0.353 OA
HETATM   25  C   UNL     1     -11.195  15.813  64.615  1.00  0.00     0.210 C 
ENDBRANCH  20  24
BRANCH  21  26
HETATM   26  O   UNL     1      -8.383  18.584  65.823  1.00  0.00    -0.358 OA
HETATM   27  H   UNL     1      -8.965  19.107  65.246  1.00  0.00     0.218 HD
ENDBRANCH  21  26
ENDBRANCH  17  18
ENDBRANCH  14  16
ENDBRANCH  13  14
ENDBRANCH  11  13
ENDBRANCH  10  11
ENDBRANCH   5   9
BRANCH   8  28
HETATM   28  O   UNL     1      -9.213  11.465  64.214  1.00  0.00    -0.358 OA
HETATM   29  H   UNL     1      -9.629  10.694  63.793  1.00  0.00     0.218 HD
ENDBRANCH   8  28
ENDBRANCH   1   3
TORSDOF 10
ENDMDL
MODEL 8
REMARK VINA RESULT:      -5.9      3.232      7.228
REMARK  10 active torsions:
REMARK  status: ('A' for Active; 'I' for Inactive)
REMARK    1  A    between atoms: O_1  and  C_12 
REMARK    2  A    between atoms: O_2  and  C_13 
REMARK    3  A    between atoms: O_3  and  C_18 
REMARK    4  A    between atoms: O_4  and  C_19 
REMARK    5  A    between atoms: C_7  and  C_16 
REMARK    6  A    between atoms: C_8  and  C_17 
REMARK    7  A    between atoms: C_9  and  C_20 
REMARK    8  A    between atoms: C_9  and  C_21 
REMARK    9  A    between atoms: C_20  and  C_24 
REMARK   10  A    between atoms: C_21  and  C_25 
ROOT
HETATM    1  O   UNL     1     -11.495   7.528  71.800  1.00  0.00    -0.353 OA
HETATM    2  C   UNL     1     -11.331   6.642  70.695  1.00  0.00     0.210 C 
ENDROOT
BRANCH   1   3
HETATM    3  C   UNL     1     -11.894   8.801  71.520  1.00  0.00     0.102 A 
HETATM    4  C   UNL     1     -11.229   9.525  70.531  1.00  0.00     0.051 A 
HETATM    5  C   UNL     1     -11.637  10.820  70.249  1.00  0.00    -0.033 A 
HETATM    6  C   UNL     1     -12.691  11.408  70.928  1.00  0.00     0.014 A 
HETATM    7  C   UNL     1     -13.356  10.683  71.916  1.00  0.00     0.040 A 
HETATM    8  C   UNL     1     -12.958   9.379  72.212  1.00  0.00     0.099 A 
BRANCH   5   9
HETATM    9  C   UNL     1     -10.934  11.586  69.203  1.00  0.00     0.015 C 
HETATM   10  C   UNL     1     -11.535  12.394  68.320  1.00  0.00     0.051 C 
BRANCH  10  11
HETATM   11  C   UNL     1     -10.731  13.118  67.291  1.00  0.00     0.156 C 
HETATM   12  O   UNL     1      -9.661  12.678  66.880  1.00  0.00    -0.293 OA
BRANCH  11  13
HETATM   13  C   UNL     1     -11.298  14.445  66.827  1.00  0.00     0.165 C 
BRANCH  13  14
HETATM   14  C   UNL     1     -11.289  15.553  67.863  1.00  0.00     0.156 C 
HETATM   15  O   UNL     1     -11.808  15.427  68.970  1.00  0.00    -0.293 OA
BRANCH  14  16
HETATM   16  C   UNL     1     -10.567  16.800  67.473  1.00  0.00     0.051 C 
HETATM   17  C   UNL     1      -9.362  17.077  67.991  1.00  0.00     0.015 C 
BRANCH  17  18
HETATM   18  C   UNL     1      -8.574  18.281  67.680  1.00  0.00    -0.033 A 
HETATM   19  C   UNL     1      -7.744  18.819  68.651  1.00  0.00     0.051 A 
HETATM   20  C   UNL     1      -6.999  19.961  68.356  1.00  0.00     0.102 A 
HETATM   21  C   UNL     1      -7.093  20.549  67.095  1.00  0.00     0.099 A 
HETATM   22  C   UNL     1      -7.933  19.996  66.128  1.00  0.00     0.040 A 
HETATM   23  C   UNL     1      -8.679  18.854  66.423  1.00  0.00     0.014 A 
BRANCH  20  24
HETATM   24  O   UNL     1      -6.181  20.491  69.308  1.00  0.00    -0.353 OA
HETATM   25  C   UNL     1      -4.986  19.773  69.610  1.00  0.00     0.210 C 
ENDBRANCH  20  24
BRANCH  21  26
HETATM   26  O   UNL     1      -6.369  21.663  66.794  1.00  0.00    -0.358 OA
HETATM   27  H   UNL     1      -6.172  22.144  67.616  1.00  0.00     0.218 HD
ENDBRANCH  21  26
ENDBRANCH  17  18
ENDBRANCH  14  16
ENDBRANCH  13  14
ENDBRANCH  11  13
ENDBRANCH  10  11
ENDBRANCH   5   9
BRANCH   8  28
HETATM   28  O   UNL     1     -13.614   8.681  73.180  1.00  0.00    -0.358 OA
HETATM   29  H   UNL     1     -13.515   9.159  74.022  1.00  0.00     0.218 HD
ENDBRANCH   8  28
ENDBRANCH   1   3
TORSDOF 10
ENDMDL
MODEL 9
REMARK VINA RESULT:      -5.8      4.509      6.914
REMARK  10 active torsions:
REMARK  status: ('A' for Active; 'I' for Inactive)
REMARK    1  A    between atoms: O_1  and  C_12 
REMARK    2  A    between atoms: O_2  and  C_13 
REMARK    3  A    between atoms: O_3  and  C_18 
REMARK    4  A    between atoms: O_4  and  C_19 
REMARK    5  A    between atoms: C_7  and  C_16 
REMARK    6  A    between atoms: C_8  and  C_17 
REMARK    7  A    between atoms: C_9  and  C_20 
REMARK    8  A    between atoms: C_9  and  C_21 
REMARK    9  A    between atoms: C_20  and  C_24 
REMARK   10  A    between atoms: C_21  and  C_25 
ROOT
HETATM    1  O   UNL     1      -2.131  20.108  69.981  1.00  0.00    -0.353 OA
HETATM    2  C   UNL     1      -1.722  20.581  68.699  1.00  0.00     0.210 C 
ENDROOT
BRANCH   1   3
HETATM    3  C   UNL     1      -3.470  20.079  70.233  1.00  0.00     0.102 A 
HETATM    4  C   UNL     1      -4.361  19.884  69.178  1.00  0.00     0.051 A 
HETATM    5  C   UNL     1      -5.722  19.856  69.438  1.00  0.00    -0.033 A 
HETATM    6  C   UNL     1      -6.215  20.016  70.722  1.00  0.00     0.014 A 
HETATM    7  C   UNL     1      -5.323  20.210  71.777  1.00  0.00     0.040 A 
HETATM    8  C   UNL     1      -3.950  20.241  71.532  1.00  0.00     0.099 A 
BRANCH   5   9
HETATM    9  C   UNL     1      -6.665  19.650  68.324  1.00  0.00     0.015 C 
HETATM   10  C   UNL     1      -6.829  18.491  67.670  1.00  0.00     0.051 C 
BRANCH  10  11
HETATM   11  C   UNL     1      -7.805  18.391  66.545  1.00  0.00     0.156 C 
HETATM   12  O   UNL     1      -7.529  17.807  65.501  1.00  0.00    -0.293 OA
BRANCH  11  13
HETATM   13  C   UNL     1      -9.131  19.094  66.760  1.00  0.00     0.165 C 
BRANCH  13  14
HETATM   14  C   UNL     1      -9.866  18.720  68.033  1.00  0.00     0.156 C 
HETATM   15  O   UNL     1     -10.285  19.560  68.825  1.00  0.00    -0.293 OA
BRANCH  14  16
HETATM   16  C   UNL     1     -10.092  17.260  68.245  1.00  0.00     0.051 C 
HETATM   17  C   UNL     1     -10.889  16.568  67.419  1.00  0.00     0.015 C 
BRANCH  17  18
HETATM   18  C   UNL     1     -11.185  15.131  67.548  1.00  0.00    -0.033 A 
HETATM   19  C   UNL     1     -11.669  14.436  66.452  1.00  0.00     0.051 A 
HETATM   20  C   UNL     1     -11.950  13.075  66.575  1.00  0.00     0.102 A 
HETATM   21  C   UNL     1     -11.743  12.429  67.793  1.00  0.00     0.099 A 
HETATM   22  C   UNL     1     -11.256  13.142  68.889  1.00  0.00     0.040 A 
HETATM   23  C   UNL     1     -10.975  14.503  68.765  1.00  0.00     0.014 A 
BRANCH  20  24
HETATM   24  O   UNL     1     -12.424  12.389  65.498  1.00  0.00    -0.353 OA
HETATM   25  C   UNL     1     -11.469  11.965  64.527  1.00  0.00     0.210 C 
ENDBRANCH  20  24
BRANCH  21  26
HETATM   26  O   UNL     1     -12.012  11.100  67.926  1.00  0.00    -0.358 OA
HETATM   27  H   UNL     1     -12.784  10.989  68.506  1.00  0.00     0.218 HD
ENDBRANCH  21  26
ENDBRANCH  17  18
ENDBRANCH  14  16
ENDBRANCH  13  14
ENDBRANCH  11  13
ENDBRANCH  10  11
ENDBRANCH   5   9
BRANCH   8  28
HETATM   28  O   UNL     1      -3.088  20.433  72.569  1.00  0.00    -0.358 OA
HETATM   29  H   UNL     1      -2.480  19.675  72.606  1.00  0.00     0.218 HD
ENDBRANCH   8  28
ENDBRANCH   1   3
TORSDOF 10
ENDMDL
