REMARK  Name = 481
REMARK  13 active torsions:
REMARK  status: ('A' for Active; 'I' for Inactive)
REMARK    1  A    between atoms: P_1  and  O_5
REMARK    2  A    between atoms: P_1  and  O_8
REMARK    3  A    between atoms: P_1  and  O_9
REMARK    4  A    between atoms: O_2  and  C_11
REMARK    5  A    between atoms: O_3  and  C_12
REMARK    6  A    between atoms: O_4  and  C_13
REMARK    7  A    between atoms: O_5  and  C_16
REMARK    8  A    between atoms: O_6  and  C_15
REMARK    9  A    between atoms: C_11  and  C_12
REMARK   10  A    between atoms: C_11  and  C_13
REMARK   11  A    between atoms: C_12  and  C_14
REMARK   12  A    between atoms: C_13  and  C_15
REMARK   13  A    between atoms: C_14  and  C_16
REMARK                            x       y       z     vdW  Elec       q    Type
REMARK                         _______ _______ _______ _____ _____    ______ ____
ROOT
ATOM     12  C   UNL     1       0.985   1.074  -0.494  0.00  0.00    +0.000 C 
ENDROOT
BRANCH  12   3
ATOM      3  O   UNL     1       1.671   2.304  -0.298  0.00  0.00    +0.000 OA
ATOM     18  H   UNL     1       1.737   2.458   0.660  0.00  0.00    +0.000 HD
ENDBRANCH  12   3
BRANCH  12  14
ATOM      7  O   UNL     1      -0.867   2.333   0.406  0.00  0.00    +0.000 OA
ATOM     14  C   UNL     1      -0.469   1.267  -0.069  0.00  0.00    +0.000 C 
BRANCH  14  16
ATOM     16  C   UNL     1      -1.414   0.101  -0.288  0.00  0.00    +0.000 C 
BRANCH  16   5
ATOM      5  O   UNL     1      -2.714   0.429   0.157  0.00  0.00    +0.000 OA
BRANCH   5   1
ATOM      1  P   UNL     1      -3.886  -0.682   0.015  0.00  0.00    +0.000 P 
ATOM     10  O   UNL     1      -5.234  -0.247   0.513  0.00  0.00    +0.000 OA
BRANCH   1   8
ATOM      8  O   UNL     1      -3.268  -1.986   0.744  0.00  0.00    +0.000 OA
ATOM     21  H   UNL     1      -3.831  -2.782   0.850  0.00  0.00    +0.000 HD
ENDBRANCH   1   8
BRANCH   1   9
ATOM      9  O   UNL     1      -3.831  -1.071  -1.554  0.00  0.00    +0.000 OA
ATOM     22  H   UNL     1      -4.516  -1.672  -1.918  0.00  0.00    +0.000 HD
ENDBRANCH   1   9
ENDBRANCH   5   1
ENDBRANCH  16   5
ENDBRANCH  14  16
ENDBRANCH  12  14
BRANCH  12  11
ATOM     11  C   UNL     1       1.751  -0.029   0.254  0.00  0.00    +0.000 C 
BRANCH  11   2
ATOM      2  O   UNL     1       1.704   0.197   1.659  0.00  0.00    +0.000 OA
ATOM     17  H   UNL     1       1.837  -0.656   2.105  0.00  0.00    +0.000 HD
ENDBRANCH  11   2
BRANCH  11  13
ATOM     13  C   UNL     1       3.209  -0.243  -0.195  0.00  0.00    +0.000 C 
BRANCH  13   4
ATOM      4  O   UNL     1       3.247  -0.583  -1.581  0.00  0.00    +0.000 OA
ATOM     19  H   UNL     1       2.722  -1.392  -1.705  0.00  0.00    +0.000 HD
ENDBRANCH  13   4
BRANCH  13  15
ATOM     15  C   UNL     1       3.884  -1.371   0.586  0.00  0.00    +0.000 C 
BRANCH  15   6
ATOM      6  O   UNL     1       5.232  -1.492   0.144  0.00  0.00    +0.000 OA
ATOM     20  H   UNL     1       5.634  -2.218   0.652  0.00  0.00    +0.000 HD
ENDBRANCH  15   6
ENDBRANCH  13  15
ENDBRANCH  11  13
ENDBRANCH  12  11
TORSDOF 13
