MODEL 1
REMARK VINA RESULT:      -5.4      0.000      0.000
REMARK  10 active torsions:
REMARK  status: ('A' for Active; 'I' for Inactive)
REMARK    1  A    between atoms: O_1  and  C_7 
REMARK    2  A    between atoms: O_2  and  C_8 
REMARK    3  A    between atoms: O_3  and  C_9 
REMARK    4  A    between atoms: O_4  and  C_10 
REMARK    5  A    between atoms: O_6  and  C_12 
REMARK    6  A    between atoms: C_7  and  C_8 
REMARK    7  A    between atoms: C_7  and  C_9 
REMARK    8  A    between atoms: C_8  and  C_10 
REMARK    9  A    between atoms: C_9  and  C_11 
REMARK   10  A    between atoms: C_11  and  C_12 
ROOT
HETATM    1  C   UNK N   1      16.525   1.745 115.332  0.00  0.00     0.185 C 
ENDROOT
BRANCH   1   2
HETATM    2  O   UNK N   1      16.685   2.584 114.213  0.00  0.00    -0.390 OA
HETATM    3  H   UNK N   1      17.543   3.069 114.321  0.00  0.00     0.210 HD
ENDBRANCH   1   2
BRANCH   1   4
HETATM    4  C   UNK N   1      15.046   1.798 115.816  0.00  0.00     0.173 C 
BRANCH   4   5
HETATM    5  O   UNK N   1      14.183   1.414 114.773  0.00  0.00    -0.391 OA
HETATM    6  H   UNK N   1      13.959   0.455 114.903  0.00  0.00     0.210 HD
ENDBRANCH   4   5
BRANCH   4   7
HETATM    7  C   UNK N   1      14.615   3.177 116.349  0.00  0.00     0.198 C 
BRANCH   7   8
HETATM    8  O   UNK N   1      14.299   4.013 115.271  0.00  0.00    -0.398 OA
HETATM    9  H   UNK N   1      14.871   3.718 114.515  0.00  0.00     0.209 HD
ENDBRANCH   7   8
ENDBRANCH   4   7
ENDBRANCH   1   4
BRANCH   1  10
HETATM   10  C   UNK N   1      16.989   0.314 114.943  0.00  0.00     0.221 C 
BRANCH  10  11
HETATM   11  O   UNK N   1      17.186   0.216 113.551  0.00  0.00    -0.385 OA
HETATM   12  H   UNK N   1      17.166  -0.745 113.304  0.00  0.00     0.210 HD
ENDBRANCH  10  11
BRANCH  10  13
HETATM   13  C   UNK N   1      18.231  -0.127 115.698  0.00  0.00     0.181 C 
HETATM   14  O   UNK N   1      18.144  -0.978 116.571  0.00  0.00    -0.293 OA
BRANCH  13  15
HETATM   15  C   UNK N   1      19.567   0.515 115.410  0.00  0.00     0.245 C 
BRANCH  15  16
HETATM   16  O   UNK N   1      20.043   0.155 114.139  0.00  0.00    -0.393 OA
HETATM   17  H   UNK N   1      19.565   0.730 113.483  0.00  0.00     0.209 HD
ENDBRANCH  15  16
ENDBRANCH  13  15
ENDBRANCH  10  13
ENDBRANCH   1  10
TORSDOF 10
ENDMDL
MODEL 2
REMARK VINA RESULT:      -5.2     18.543     19.456
REMARK  10 active torsions:
REMARK  status: ('A' for Active; 'I' for Inactive)
REMARK    1  A    between atoms: O_1  and  C_7 
REMARK    2  A    between atoms: O_2  and  C_8 
REMARK    3  A    between atoms: O_3  and  C_9 
REMARK    4  A    between atoms: O_4  and  C_10 
REMARK    5  A    between atoms: O_6  and  C_12 
REMARK    6  A    between atoms: C_7  and  C_8 
REMARK    7  A    between atoms: C_7  and  C_9 
REMARK    8  A    between atoms: C_8  and  C_10 
REMARK    9  A    between atoms: C_9  and  C_11 
REMARK   10  A    between atoms: C_11  and  C_12 
ROOT
HETATM    1  C   UNK N   1      28.156  12.615 124.694  0.00  0.00     0.185 C 
ENDROOT
BRANCH   1   2
HETATM    2  O   UNK N   1      28.103  11.915 125.914  0.00  0.00    -0.390 OA
HETATM    3  H   UNK N   1      28.003  10.951 125.703  0.00  0.00     0.210 HD
ENDBRANCH   1   2
BRANCH   1   4
HETATM    4  C   UNK N   1      27.687  14.083 124.915  0.00  0.00     0.173 C 
BRANCH   4   5
HETATM    5  O   UNK N   1      28.130  14.896 123.855  0.00  0.00    -0.391 OA
HETATM    6  H   UNK N   1      28.732  14.350 123.285  0.00  0.00     0.210 HD
ENDBRANCH   4   5
BRANCH   4   7
HETATM    7  C   UNK N   1      28.153  14.692 126.251  0.00  0.00     0.198 C 
BRANCH   7   8
HETATM    8  O   UNK N   1      27.232  14.367 127.255  0.00  0.00    -0.398 OA
HETATM    9  H   UNK N   1      27.697  14.523 128.118  0.00  0.00     0.209 HD
ENDBRANCH   7   8
ENDBRANCH   4   7
ENDBRANCH   1   4
BRANCH   1  10
HETATM   10  C   UNK N   1      29.602  12.514 124.133  0.00  0.00     0.221 C 
BRANCH  10  11
HETATM   11  O   UNK N   1      30.383  13.600 124.574  0.00  0.00    -0.385 OA
HETATM   12  H   UNK N   1      30.875  13.315 125.389  0.00  0.00     0.210 HD
ENDBRANCH  10  11
BRANCH  10  13
HETATM   13  C   UNK N   1      30.271  11.193 124.470  0.00  0.00     0.181 C 
HETATM   14  O   UNK N   1      30.944  11.091 125.485  0.00  0.00    -0.293 OA
BRANCH  13  15
HETATM   15  C   UNK N   1      30.149  10.015 123.532  0.00  0.00     0.245 C 
BRANCH  15  16
HETATM   16  O   UNK N   1      30.697   8.853 124.097  0.00  0.00    -0.393 OA
HETATM   17  H   UNK N   1      30.200   8.085 123.709  0.00  0.00     0.209 HD
ENDBRANCH  15  16
ENDBRANCH  13  15
ENDBRANCH  10  13
ENDBRANCH   1  10
TORSDOF 10
ENDMDL
MODEL 3
REMARK VINA RESULT:      -5.2     17.348     18.853
REMARK  10 active torsions:
REMARK  status: ('A' for Active; 'I' for Inactive)
REMARK    1  A    between atoms: O_1  and  C_7 
REMARK    2  A    between atoms: O_2  and  C_8 
REMARK    3  A    between atoms: O_3  and  C_9 
REMARK    4  A    between atoms: O_4  and  C_10 
REMARK    5  A    between atoms: O_6  and  C_12 
REMARK    6  A    between atoms: C_7  and  C_8 
REMARK    7  A    between atoms: C_7  and  C_9 
REMARK    8  A    between atoms: C_8  and  C_10 
REMARK    9  A    between atoms: C_9  and  C_11 
REMARK   10  A    between atoms: C_11  and  C_12 
ROOT
HETATM    1  C   UNK N   1      30.529  10.879 123.761  0.00  0.00     0.185 C 
ENDROOT
BRANCH   1   2
HETATM    2  O   UNK N   1      30.914  10.929 125.115  0.00  0.00    -0.390 OA
HETATM    3  H   UNK N   1      30.327  11.586 125.570  0.00  0.00     0.210 HD
ENDBRANCH   1   2
BRANCH   1   4
HETATM    4  C   UNK N   1      30.090   9.430 123.398  0.00  0.00     0.173 C 
BRANCH   4   5
HETATM    5  O   UNK N   1      30.867   8.497 124.109  0.00  0.00    -0.391 OA
HETATM    6  H   UNK N   1      31.358   7.944 123.446  0.00  0.00     0.210 HD
ENDBRANCH   4   5
BRANCH   4   7
HETATM    7  C   UNK N   1      30.170   9.115 121.893  0.00  0.00     0.198 C 
BRANCH   7   8
HETATM    8  O   UNK N   1      28.883   9.161 121.341  0.00  0.00    -0.398 OA
HETATM    9  H   UNK N   1      28.482   8.266 121.498  0.00  0.00     0.209 HD
ENDBRANCH   7   8
ENDBRANCH   4   7
ENDBRANCH   1   4
BRANCH   1  10
HETATM   10  C   UNK N   1      29.410  11.933 123.531  0.00  0.00     0.221 C 
BRANCH  10  11
HETATM   11  O   UNK N   1      28.162  11.303 123.362  0.00  0.00    -0.385 OA
HETATM   12  H   UNK N   1      27.821  11.531 122.458  0.00  0.00     0.210 HD
ENDBRANCH  10  11
BRANCH  10  13
HETATM   13  C   UNK N   1      29.347  12.974 124.635  0.00  0.00     0.181 C 
HETATM   14  O   UNK N   1      30.190  13.857 124.689  0.00  0.00    -0.293 OA
BRANCH  13  15
HETATM   15  C   UNK N   1      28.275  12.897 125.695  0.00  0.00     0.245 C 
BRANCH  15  16
HETATM   16  O   UNK N   1      28.063  11.574 126.113  0.00  0.00    -0.393 OA
HETATM   17  H   UNK N   1      27.329  11.211 125.550  0.00  0.00     0.209 HD
ENDBRANCH  15  16
ENDBRANCH  13  15
ENDBRANCH  10  13
ENDBRANCH   1  10
TORSDOF 10
ENDMDL
MODEL 4
REMARK VINA RESULT:      -5.1     21.798     22.623
REMARK  10 active torsions:
REMARK  status: ('A' for Active; 'I' for Inactive)
REMARK    1  A    between atoms: O_1  and  C_7 
REMARK    2  A    between atoms: O_2  and  C_8 
REMARK    3  A    between atoms: O_3  and  C_9 
REMARK    4  A    between atoms: O_4  and  C_10 
REMARK    5  A    between atoms: O_6  and  C_12 
REMARK    6  A    between atoms: C_7  and  C_8 
REMARK    7  A    between atoms: C_7  and  C_9 
REMARK    8  A    between atoms: C_8  and  C_10 
REMARK    9  A    between atoms: C_9  and  C_11 
REMARK   10  A    between atoms: C_11  and  C_12 
ROOT
HETATM    1  C   UNK N   1      39.640  -2.514 114.128  0.00  0.00     0.185 C 
ENDROOT
BRANCH   1   2
HETATM    2  O   UNK N   1      38.995  -2.625 112.882  0.00  0.00    -0.390 OA
HETATM    3  H   UNK N   1      39.644  -2.353 112.183  0.00  0.00     0.210 HD
ENDBRANCH   1   2
BRANCH   1   4
HETATM    4  C   UNK N   1      39.708  -1.015 114.547  0.00  0.00     0.173 C 
BRANCH   4   5
HETATM    5  O   UNK N   1      39.392  -0.881 115.912  0.00  0.00    -0.391 OA
HETATM    6  H   UNK N   1      39.823  -0.049 116.242  0.00  0.00     0.210 HD
ENDBRANCH   4   5
BRANCH   4   7
HETATM    7  C   UNK N   1      38.789  -0.096 113.722  0.00  0.00     0.198 C 
BRANCH   7   8
HETATM    8  O   UNK N   1      38.761   1.177 114.305  0.00  0.00    -0.398 OA
HETATM    9  H   UNK N   1      39.545   1.219 114.914  0.00  0.00     0.209 HD
ENDBRANCH   7   8
ENDBRANCH   4   7
ENDBRANCH   1   4
BRANCH   1  10
HETATM   10  C   UNK N   1      38.883  -3.401 115.154  0.00  0.00     0.221 C 
BRANCH  10  11
HETATM   11  O   UNK N   1      37.553  -2.961 115.305  0.00  0.00    -0.385 OA
HETATM   12  H   UNK N   1      37.206  -3.318 116.165  0.00  0.00     0.210 HD
ENDBRANCH  10  11
BRANCH  10  13
HETATM   13  C   UNK N   1      38.928  -4.878 114.800  0.00  0.00     0.181 C 
HETATM   14  O   UNK N   1      39.113  -5.222 113.642  0.00  0.00    -0.293 OA
BRANCH  13  15
HETATM   15  C   UNK N   1      38.699  -5.925 115.864  0.00  0.00     0.245 C 
BRANCH  15  16
HETATM   16  O   UNK N   1      37.506  -5.688 116.566  0.00  0.00    -0.393 OA
HETATM   17  H   UNK N   1      36.970  -6.522 116.504  0.00  0.00     0.209 HD
ENDBRANCH  15  16
ENDBRANCH  13  15
ENDBRANCH  10  13
ENDBRANCH   1  10
TORSDOF 10
ENDMDL
MODEL 5
REMARK VINA RESULT:      -5.0     18.560     19.371
REMARK  10 active torsions:
REMARK  status: ('A' for Active; 'I' for Inactive)
REMARK    1  A    between atoms: O_1  and  C_7 
REMARK    2  A    between atoms: O_2  and  C_8 
REMARK    3  A    between atoms: O_3  and  C_9 
REMARK    4  A    between atoms: O_4  and  C_10 
REMARK    5  A    between atoms: O_6  and  C_12 
REMARK    6  A    between atoms: C_7  and  C_8 
REMARK    7  A    between atoms: C_7  and  C_9 
REMARK    8  A    between atoms: C_8  and  C_10 
REMARK    9  A    between atoms: C_9  and  C_11 
REMARK   10  A    between atoms: C_11  and  C_12 
ROOT
HETATM    1  C   UNK N   1      28.253  13.537 124.821  0.00  0.00     0.185 C 
ENDROOT
BRANCH   1   2
HETATM    2  O   UNK N   1      27.024  13.174 124.240  0.00  0.00    -0.390 OA
HETATM    3  H   UNK N   1      26.955  13.641 123.367  0.00  0.00     0.210 HD
ENDBRANCH   1   2
BRANCH   1   4
HETATM    4  C   UNK N   1      28.044  14.768 125.752  0.00  0.00     0.173 C 
BRANCH   4   5
HETATM    5  O   UNK N   1      27.370  14.379 126.924  0.00  0.00    -0.391 OA
HETATM    6  H   UNK N   1      27.911  13.671 127.364  0.00  0.00     0.210 HD
ENDBRANCH   4   5
BRANCH   4   7
HETATM    7  C   UNK N   1      27.279  15.928 125.088  0.00  0.00     0.198 C 
BRANCH   7   8
HETATM    8  O   UNK N   1      28.048  16.452 124.042  0.00  0.00    -0.398 OA
HETATM    9  H   UNK N   1      28.471  15.674 123.592  0.00  0.00     0.209 HD
ENDBRANCH   7   8
ENDBRANCH   4   7
ENDBRANCH   1   4
BRANCH   1  10
HETATM   10  C   UNK N   1      28.829  12.301 125.565  0.00  0.00     0.221 C 
BRANCH  10  11
HETATM   11  O   UNK N   1      27.792  11.442 125.979  0.00  0.00    -0.385 OA
HETATM   12  H   UNK N   1      28.070  11.010 126.829  0.00  0.00     0.210 HD
ENDBRANCH  10  11
BRANCH  10  13
HETATM   13  C   UNK N   1      29.860  11.548 124.742  0.00  0.00     0.181 C 
HETATM   14  O   UNK N   1      30.869  11.113 125.277  0.00  0.00    -0.293 OA
BRANCH  13  15
HETATM   15  C   UNK N   1      29.668  11.373 123.254  0.00  0.00     0.245 C 
BRANCH  15  16
HETATM   16  O   UNK N   1      28.386  10.884 122.958  0.00  0.00    -0.393 OA
HETATM   17  H   UNK N   1      28.474   9.900 122.853  0.00  0.00     0.209 HD
ENDBRANCH  15  16
ENDBRANCH  13  15
ENDBRANCH  10  13
ENDBRANCH   1  10
TORSDOF 10
ENDMDL
MODEL 6
REMARK VINA RESULT:      -5.0      1.719      4.357
REMARK  10 active torsions:
REMARK  status: ('A' for Active; 'I' for Inactive)
REMARK    1  A    between atoms: O_1  and  C_7 
REMARK    2  A    between atoms: O_2  and  C_8 
REMARK    3  A    between atoms: O_3  and  C_9 
REMARK    4  A    between atoms: O_4  and  C_10 
REMARK    5  A    between atoms: O_6  and  C_12 
REMARK    6  A    between atoms: C_7  and  C_8 
REMARK    7  A    between atoms: C_7  and  C_9 
REMARK    8  A    between atoms: C_8  and  C_10 
REMARK    9  A    between atoms: C_9  and  C_11 
REMARK   10  A    between atoms: C_11  and  C_12 
ROOT
HETATM    1  C   UNK N   1      17.969   1.168 115.676  0.00  0.00     0.185 C 
ENDROOT
BRANCH   1   2
HETATM    2  O   UNK N   1      17.796   2.423 116.290  0.00  0.00    -0.390 OA
HETATM    3  H   UNK N   1      16.903   2.425 116.722  0.00  0.00     0.210 HD
ENDBRANCH   1   2
BRANCH   1   4
HETATM    4  C   UNK N   1      17.518   0.043 116.654  0.00  0.00     0.173 C 
BRANCH   4   5
HETATM    5  O   UNK N   1      16.729   0.588 117.684  0.00  0.00    -0.391 OA
HETATM    6  H   UNK N   1      15.787   0.605 117.368  0.00  0.00     0.210 HD
ENDBRANCH   4   5
BRANCH   4   7
HETATM    7  C   UNK N   1      18.684  -0.749 117.273  0.00  0.00     0.198 C 
BRANCH   7   8
HETATM    8  O   UNK N   1      18.175  -1.712 118.153  0.00  0.00    -0.398 OA
HETATM    9  H   UNK N   1      17.398  -2.125 117.693  0.00  0.00     0.209 HD
ENDBRANCH   7   8
ENDBRANCH   4   7
ENDBRANCH   1   4
BRANCH   1  10
HETATM   10  C   UNK N   1      17.182   1.165 114.336  0.00  0.00     0.221 C 
BRANCH  10  11
HETATM   11  O   UNK N   1      16.574  -0.088 114.121  0.00  0.00    -0.385 OA
HETATM   12  H   UNK N   1      16.584  -0.272 113.145  0.00  0.00     0.210 HD
ENDBRANCH  10  11
BRANCH  10  13
HETATM   13  C   UNK N   1      16.160   2.285 114.253  0.00  0.00     0.181 C 
HETATM   14  O   UNK N   1      16.373   3.253 113.538  0.00  0.00    -0.293 OA
BRANCH  13  15
HETATM   15  C   UNK N   1      14.900   2.232 115.085  0.00  0.00     0.245 C 
BRANCH  15  16
HETATM   16  O   UNK N   1      14.144   1.086 114.795  0.00  0.00    -0.393 OA
HETATM   17  H   UNK N   1      14.421   0.784 113.889  0.00  0.00     0.209 HD
ENDBRANCH  15  16
ENDBRANCH  13  15
ENDBRANCH  10  13
ENDBRANCH   1  10
TORSDOF 10
ENDMDL
MODEL 7
REMARK VINA RESULT:      -4.9     24.934     26.178
REMARK  10 active torsions:
REMARK  status: ('A' for Active; 'I' for Inactive)
REMARK    1  A    between atoms: O_1  and  C_7 
REMARK    2  A    between atoms: O_2  and  C_8 
REMARK    3  A    between atoms: O_3  and  C_9 
REMARK    4  A    between atoms: O_4  and  C_10 
REMARK    5  A    between atoms: O_6  and  C_12 
REMARK    6  A    between atoms: C_7  and  C_8 
REMARK    7  A    between atoms: C_7  and  C_9 
REMARK    8  A    between atoms: C_8  and  C_10 
REMARK    9  A    between atoms: C_9  and  C_11 
REMARK   10  A    between atoms: C_11  and  C_12 
ROOT
HETATM    1  C   UNK N   1      37.587  -2.609  99.184  0.00  0.00     0.185 C 
ENDROOT
BRANCH   1   2
HETATM    2  O   UNK N   1      37.911  -1.501  98.380  0.00  0.00    -0.390 OA
HETATM    3  H   UNK N   1      37.430  -1.604  97.518  0.00  0.00     0.210 HD
ENDBRANCH   1   2
BRANCH   1   4
HETATM    4  C   UNK N   1      38.024  -2.333 100.653  0.00  0.00     0.173 C 
BRANCH   4   5
HETATM    5  O   UNK N   1      37.278  -1.265 101.186  0.00  0.00    -0.391 OA
HETATM    6  H   UNK N   1      37.910  -0.526 101.390  0.00  0.00     0.210 HD
ENDBRANCH   4   5
BRANCH   4   7
HETATM    7  C   UNK N   1      39.526  -2.030 100.809  0.00  0.00     0.198 C 
BRANCH   7   8
HETATM    8  O   UNK N   1      39.712  -1.146 101.879  0.00  0.00    -0.398 OA
HETATM    9  H   UNK N   1      40.021  -0.291 101.481  0.00  0.00     0.209 HD
ENDBRANCH   7   8
ENDBRANCH   4   7
ENDBRANCH   1   4
BRANCH   1  10
HETATM   10  C   UNK N   1      36.065  -2.890  99.043  0.00  0.00     0.221 C 
BRANCH  10  11
HETATM   11  O   UNK N   1      35.315  -1.750  99.392  0.00  0.00    -0.385 OA
HETATM   12  H   UNK N   1      34.352  -1.973  99.295  0.00  0.00     0.210 HD
ENDBRANCH  10  11
BRANCH  10  13
HETATM   13  C   UNK N   1      35.685  -3.385  97.658  0.00  0.00     0.181 C 
HETATM   14  O   UNK N   1      36.492  -3.316  96.743  0.00  0.00    -0.293 OA
BRANCH  13  15
HETATM   15  C   UNK N   1      34.298  -3.921  97.394  0.00  0.00     0.245 C 
BRANCH  15  16
HETATM   16  O   UNK N   1      33.331  -3.223  98.135  0.00  0.00    -0.393 OA
HETATM   17  H   UNK N   1      33.757  -2.979  98.999  0.00  0.00     0.209 HD
ENDBRANCH  15  16
ENDBRANCH  13  15
ENDBRANCH  10  13
ENDBRANCH   1  10
TORSDOF 10
ENDMDL
MODEL 8
REMARK VINA RESULT:      -4.9      1.543      2.372
REMARK  10 active torsions:
REMARK  status: ('A' for Active; 'I' for Inactive)
REMARK    1  A    between atoms: O_1  and  C_7 
REMARK    2  A    between atoms: O_2  and  C_8 
REMARK    3  A    between atoms: O_3  and  C_9 
REMARK    4  A    between atoms: O_4  and  C_10 
REMARK    5  A    between atoms: O_6  and  C_12 
REMARK    6  A    between atoms: C_7  and  C_8 
REMARK    7  A    between atoms: C_7  and  C_9 
REMARK    8  A    between atoms: C_8  and  C_10 
REMARK    9  A    between atoms: C_9  and  C_11 
REMARK   10  A    between atoms: C_11  and  C_12 
ROOT
HETATM    1  C   UNK N   1      16.157   2.199 116.151  0.00  0.00     0.185 C 
ENDROOT
BRANCH   1   2
HETATM    2  O   UNK N   1      16.087   3.278 115.250  0.00  0.00    -0.390 OA
HETATM    3  H   UNK N   1      15.312   3.839 115.513  0.00  0.00     0.210 HD
ENDBRANCH   1   2
BRANCH   1   4
HETATM    4  C   UNK N   1      15.076   1.140 115.780  0.00  0.00     0.173 C 
BRANCH   4   5
HETATM    5  O   UNK N   1      14.310   1.594 114.690  0.00  0.00    -0.391 OA
HETATM    6  H   UNK N   1      14.540   2.548 114.534  0.00  0.00     0.210 HD
ENDBRANCH   4   5
BRANCH   4   7
HETATM    7  C   UNK N   1      14.136   0.776 116.943  0.00  0.00     0.198 C 
BRANCH   7   8
HETATM    8  O   UNK N   1      14.874   0.153 117.958  0.00  0.00    -0.398 OA
HETATM    9  H   UNK N   1      14.210  -0.218 118.596  0.00  0.00     0.209 HD
ENDBRANCH   7   8
ENDBRANCH   4   7
ENDBRANCH   1   4
BRANCH   1  10
HETATM   10  C   UNK N   1      17.603   1.630 116.124  0.00  0.00     0.221 C 
BRANCH  10  11
HETATM   11  O   UNK N   1      17.785   0.687 117.154  0.00  0.00    -0.385 OA
HETATM   12  H   UNK N   1      18.339  -0.056 116.797  0.00  0.00     0.210 HD
ENDBRANCH  10  11
BRANCH  10  13
HETATM   13  C   UNK N   1      17.976   1.039 114.776  0.00  0.00     0.181 C 
HETATM   14  O   UNK N   1      17.501   1.507 113.752  0.00  0.00    -0.293 OA
BRANCH  13  15
HETATM   15  C   UNK N   1      18.897  -0.156 114.695  0.00  0.00     0.245 C 
BRANCH  15  16
HETATM   16  O   UNK N   1      20.143   0.196 114.153  0.00  0.00    -0.393 OA
HETATM   17  H   UNK N   1      20.827  -0.332 114.644  0.00  0.00     0.209 HD
ENDBRANCH  15  16
ENDBRANCH  13  15
ENDBRANCH  10  13
ENDBRANCH   1  10
TORSDOF 10
ENDMDL
MODEL 9
REMARK VINA RESULT:      -4.9     17.398     18.205
REMARK  10 active torsions:
REMARK  status: ('A' for Active; 'I' for Inactive)
REMARK    1  A    between atoms: O_1  and  C_7 
REMARK    2  A    between atoms: O_2  and  C_8 
REMARK    3  A    between atoms: O_3  and  C_9 
REMARK    4  A    between atoms: O_4  and  C_10 
REMARK    5  A    between atoms: O_6  and  C_12 
REMARK    6  A    between atoms: C_7  and  C_8 
REMARK    7  A    between atoms: C_7  and  C_9 
REMARK    8  A    between atoms: C_8  and  C_10 
REMARK    9  A    between atoms: C_9  and  C_11 
REMARK   10  A    between atoms: C_11  and  C_12 
ROOT
HETATM    1  C   UNK N   1      27.177  13.019 122.953  0.00  0.00     0.185 C 
ENDROOT
BRANCH   1   2
HETATM    2  O   UNK N   1      26.510  11.942 123.567  0.00  0.00    -0.390 OA
HETATM    3  H   UNK N   1      26.977  11.747 124.420  0.00  0.00     0.210 HD
ENDBRANCH   1   2
BRANCH   1   4
HETATM    4  C   UNK N   1      26.577  14.362 123.463  0.00  0.00     0.173 C 
BRANCH   4   5
HETATM    5  O   UNK N   1      26.645  14.419 124.867  0.00  0.00    -0.391 OA
HETATM    6  H   UNK N   1      27.579  14.212 125.134  0.00  0.00     0.210 HD
ENDBRANCH   4   5
BRANCH   4   7
HETATM    7  C   UNK N   1      25.124  14.606 123.015  0.00  0.00     0.198 C 
BRANCH   7   8
HETATM    8  O   UNK N   1      24.271  13.751 123.725  0.00  0.00    -0.398 OA
HETATM    9  H   UNK N   1      23.779  13.223 123.043  0.00  0.00     0.209 HD
ENDBRANCH   7   8
ENDBRANCH   4   7
ENDBRANCH   1   4
BRANCH   1  10
HETATM   10  C   UNK N   1      28.698  12.881 123.239  0.00  0.00     0.221 C 
BRANCH  10  11
HETATM   11  O   UNK N   1      29.164  13.980 123.987  0.00  0.00    -0.385 OA
HETATM   12  H   UNK N   1      29.484  14.673 123.351  0.00  0.00     0.210 HD
ENDBRANCH  10  11
BRANCH  10  13
HETATM   13  C   UNK N   1      29.051  11.571 123.921  0.00  0.00     0.181 C 
HETATM   14  O   UNK N   1      29.164  10.550 123.260  0.00  0.00    -0.293 OA
BRANCH  13  15
HETATM   15  C   UNK N   1      29.218  11.514 125.421  0.00  0.00     0.245 C 
BRANCH  15  16
HETATM   16  O   UNK N   1      27.993  11.706 126.079  0.00  0.00    -0.393 OA
HETATM   17  H   UNK N   1      27.692  12.626 125.857  0.00  0.00     0.209 HD
ENDBRANCH  15  16
ENDBRANCH  13  15
ENDBRANCH  10  13
ENDBRANCH   1  10
TORSDOF 10
ENDMDL
