MODEL 1
REMARK VINA RESULT:      -5.4      0.000      0.000
REMARK  13 active torsions:
REMARK  status: ('A' for Active; 'I' for Inactive)
REMARK    1  A    between atoms: P_1  and  O_5 
REMARK    2  A    between atoms: P_1  and  O_8 
REMARK    3  A    between atoms: P_1  and  O_9 
REMARK    4  A    between atoms: O_2  and  C_11 
REMARK    5  A    between atoms: O_3  and  C_12 
REMARK    6  A    between atoms: O_4  and  C_13 
REMARK    7  A    between atoms: O_5  and  C_16 
REMARK    8  A    between atoms: O_6  and  C_15 
REMARK    9  A    between atoms: C_11  and  C_12 
REMARK   10  A    between atoms: C_11  and  C_13 
REMARK   11  A    between atoms: C_12  and  C_14 
REMARK   12  A    between atoms: C_13  and  C_15 
REMARK   13  A    between atoms: C_14  and  C_16 
ROOT
HETATM    1  C   UNK N   1      14.913   2.263 114.923  0.00  0.00     0.221 C 
ENDROOT
BRANCH   1   2
HETATM    2  O   UNK N   1      14.853   0.932 115.382  0.00  0.00    -0.385 OA
HETATM    3  H   UNK N   1      15.025   0.333 114.610  0.00  0.00     0.210 HD
ENDBRANCH   1   2
BRANCH   1   4
HETATM    4  C   UNK N   1      15.010   3.252 116.115  0.00  0.00     0.185 C 
BRANCH   4   5
HETATM    5  O   UNK N   1      16.228   3.951 116.032  0.00  0.00    -0.390 OA
HETATM    6  H   UNK N   1      16.039   4.900 116.254  0.00  0.00     0.210 HD
ENDBRANCH   4   5
BRANCH   4   7
HETATM    7  C   UNK N   1      14.908   2.519 117.479  0.00  0.00     0.173 C 
BRANCH   7   8
HETATM    8  O   UNK N   1      14.048   3.212 118.351  0.00  0.00    -0.391 OA
HETATM    9  H   UNK N   1      13.254   3.497 117.827  0.00  0.00     0.210 HD
ENDBRANCH   7   8
BRANCH   7  10
HETATM   10  C   UNK N   1      16.283   2.320 118.141  0.00  0.00     0.198 C 
BRANCH  10  11
HETATM   11  O   UNK N   1      16.752   1.029 117.872  0.00  0.00    -0.398 OA
HETATM   12  H   UNK N   1      15.980   0.529 117.500  0.00  0.00     0.209 HD
ENDBRANCH  10  11
ENDBRANCH   7  10
ENDBRANCH   4   7
ENDBRANCH   1   4
BRANCH   1  13
HETATM   13  C   UNK N   1      16.048   2.432 113.927  0.00  0.00     0.181 C 
HETATM   14  O   UNK N   1      16.039   3.370 113.143  0.00  0.00    -0.293 OA
BRANCH  13  15
HETATM   15  C   UNK N   1      17.202   1.467 113.918  0.00  0.00     0.261 C 
BRANCH  15  16
HETATM   16  O   UNK N   1      17.903   1.543 115.135  0.00  0.00    -0.290 OA
BRANCH  16  17
HETATM   17  P   UNK N   1      18.857   0.090 115.267  0.00  0.00     0.391 P 
HETATM   18  O   UNK N   1      17.938  -1.078 114.820  0.00  0.00    -0.632 OA
BRANCH  17  19
HETATM   19  O   UNK N   1      19.321  -0.192 116.918  0.00  0.00    -0.307 OA
HETATM   20  H   UNK N   1      18.689  -0.877 117.248  0.00  0.00     0.222 HD
ENDBRANCH  17  19
BRANCH  17  21
HETATM   21  O   UNK N   1      20.214   0.152 114.183  0.00  0.00    -0.307 OA
HETATM   22  H   UNK N   1      19.973   0.834 113.508  0.00  0.00     0.222 HD
ENDBRANCH  17  21
ENDBRANCH  16  17
ENDBRANCH  15  16
ENDBRANCH  13  15
ENDBRANCH   1  13
TORSDOF 13
ENDMDL
MODEL 2
REMARK VINA RESULT:      -5.2     20.238     21.979
REMARK  13 active torsions:
REMARK  status: ('A' for Active; 'I' for Inactive)
REMARK    1  A    between atoms: P_1  and  O_5 
REMARK    2  A    between atoms: P_1  and  O_8 
REMARK    3  A    between atoms: P_1  and  O_9 
REMARK    4  A    between atoms: O_2  and  C_11 
REMARK    5  A    between atoms: O_3  and  C_12 
REMARK    6  A    between atoms: O_4  and  C_13 
REMARK    7  A    between atoms: O_5  and  C_16 
REMARK    8  A    between atoms: O_6  and  C_15 
REMARK    9  A    between atoms: C_11  and  C_12 
REMARK   10  A    between atoms: C_11  and  C_13 
REMARK   11  A    between atoms: C_12  and  C_14 
REMARK   12  A    between atoms: C_13  and  C_15 
REMARK   13  A    between atoms: C_14  and  C_16 
ROOT
HETATM    1  C   UNK N   1      36.990  -4.419 116.327  0.00  0.00     0.221 C 
ENDROOT
BRANCH   1   2
HETATM    2  O   UNK N   1      36.081  -4.521 115.255  0.00  0.00    -0.385 OA
HETATM    3  H   UNK N   1      36.600  -4.707 114.430  0.00  0.00     0.210 HD
ENDBRANCH   1   2
BRANCH   1   4
HETATM    4  C   UNK N   1      36.909  -5.673 117.237  0.00  0.00     0.185 C 
BRANCH   4   5
HETATM    5  O   UNK N   1      37.228  -6.812 116.475  0.00  0.00    -0.390 OA
HETATM    6  H   UNK N   1      37.103  -6.573 115.520  0.00  0.00     0.210 HD
ENDBRANCH   4   5
BRANCH   4   7
HETATM    7  C   UNK N   1      35.501  -5.832 117.872  0.00  0.00     0.173 C 
BRANCH   7   8
HETATM    8  O   UNK N   1      35.586  -5.807 119.276  0.00  0.00    -0.391 OA
HETATM    9  H   UNK N   1      35.537  -6.746 119.597  0.00  0.00     0.210 HD
ENDBRANCH   7   8
BRANCH   7  10
HETATM   10  C   UNK N   1      34.792  -7.117 117.408  0.00  0.00     0.198 C 
BRANCH  10  11
HETATM   11  O   UNK N   1      34.248  -6.920 116.134  0.00  0.00    -0.398 OA
HETATM   12  H   UNK N   1      34.145  -5.938 116.028  0.00  0.00     0.209 HD
ENDBRANCH  10  11
ENDBRANCH   7  10
ENDBRANCH   4   7
ENDBRANCH   1   4
BRANCH   1  13
HETATM   13  C   UNK N   1      38.395  -4.157 115.812  0.00  0.00     0.181 C 
HETATM   14  O   UNK N   1      39.349  -4.723 116.324  0.00  0.00    -0.293 OA
BRANCH  13  15
HETATM   15  C   UNK N   1      38.619  -3.225 114.651  0.00  0.00     0.261 C 
BRANCH  15  16
HETATM   16  O   UNK N   1      38.165  -1.934 114.977  0.00  0.00    -0.290 OA
BRANCH  16  17
HETATM   17  P   UNK N   1      39.215  -0.805 114.165  0.00  0.00     0.391 P 
HETATM   18  O   UNK N   1      40.653  -1.108 114.665  0.00  0.00    -0.632 OA
BRANCH  17  19
HETATM   19  O   UNK N   1      38.825   0.828 114.613  0.00  0.00    -0.307 OA
HETATM   20  H   UNK N   1      39.374   1.396 114.019  0.00  0.00     0.222 HD
ENDBRANCH  17  19
BRANCH  17  21
HETATM   21  O   UNK N   1      39.177  -1.063 112.447  0.00  0.00    -0.307 OA
HETATM   22  H   UNK N   1      39.341  -2.032 112.330  0.00  0.00     0.222 HD
ENDBRANCH  17  21
ENDBRANCH  16  17
ENDBRANCH  15  16
ENDBRANCH  13  15
ENDBRANCH   1  13
TORSDOF 13
ENDMDL
MODEL 3
REMARK VINA RESULT:      -5.1      3.420      5.357
REMARK  13 active torsions:
REMARK  status: ('A' for Active; 'I' for Inactive)
REMARK    1  A    between atoms: P_1  and  O_5 
REMARK    2  A    between atoms: P_1  and  O_8 
REMARK    3  A    between atoms: P_1  and  O_9 
REMARK    4  A    between atoms: O_2  and  C_11 
REMARK    5  A    between atoms: O_3  and  C_12 
REMARK    6  A    between atoms: O_4  and  C_13 
REMARK    7  A    between atoms: O_5  and  C_16 
REMARK    8  A    between atoms: O_6  and  C_15 
REMARK    9  A    between atoms: C_11  and  C_12 
REMARK   10  A    between atoms: C_11  and  C_13 
REMARK   11  A    between atoms: C_12  and  C_14 
REMARK   12  A    between atoms: C_13  and  C_15 
REMARK   13  A    between atoms: C_14  and  C_16 
ROOT
HETATM    1  C   UNK N   1      18.133  -0.620 117.700  0.00  0.00     0.221 C 
ENDROOT
BRANCH   1   2
HETATM    2  O   UNK N   1      17.513  -1.876 117.546  0.00  0.00    -0.385 OA
HETATM    3  H   UNK N   1      18.155  -2.573 117.841  0.00  0.00     0.210 HD
ENDBRANCH   1   2
BRANCH   1   4
HETATM    4  C   UNK N   1      19.527  -0.772 118.365  0.00  0.00     0.185 C 
BRANCH   4   5
HETATM    5  O   UNK N   1      20.342  -1.569 117.541  0.00  0.00    -0.390 OA
HETATM    6  H   UNK N   1      20.479  -1.073 116.692  0.00  0.00     0.210 HD
ENDBRANCH   4   5
BRANCH   4   7
HETATM    7  C   UNK N   1      19.421  -1.401 119.780  0.00  0.00     0.173 C 
BRANCH   7   8
HETATM    8  O   UNK N   1      19.377  -0.398 120.766  0.00  0.00    -0.391 OA
HETATM    9  H   UNK N   1      18.577  -0.566 121.330  0.00  0.00     0.210 HD
ENDBRANCH   7   8
BRANCH   7  10
HETATM   10  C   UNK N   1      20.573  -2.379 120.073  0.00  0.00     0.198 C 
BRANCH  10  11
HETATM   11  O   UNK N   1      20.726  -2.524 121.457  0.00  0.00    -0.398 OA
HETATM   12  H   UNK N   1      19.992  -3.123 121.753  0.00  0.00     0.209 HD
ENDBRANCH  10  11
ENDBRANCH   7  10
ENDBRANCH   4   7
ENDBRANCH   1   4
BRANCH   1  13
HETATM   13  C   UNK N   1      18.195   0.110 116.368  0.00  0.00     0.181 C 
HETATM   14  O   UNK N   1      19.272   0.475 115.921  0.00  0.00    -0.293 OA
BRANCH  13  15
HETATM   15  C   UNK N   1      16.938   0.361 115.579  0.00  0.00     0.261 C 
BRANCH  15  16
HETATM   16  O   UNK N   1      17.213   1.214 114.495  0.00  0.00    -0.290 OA
BRANCH  16  17
HETATM   17  P   UNK N   1      15.976   2.442 114.486  0.00  0.00     0.391 P 
HETATM   18  O   UNK N   1      16.075   3.151 113.108  0.00  0.00    -0.632 OA
BRANCH  17  19
HETATM   19  O   UNK N   1      16.278   3.627 115.721  0.00  0.00    -0.307 OA
HETATM   20  H   UNK N   1      15.827   3.277 116.528  0.00  0.00     0.222 HD
ENDBRANCH  17  19
BRANCH  17  21
HETATM   21  O   UNK N   1      14.400   1.722 114.609  0.00  0.00    -0.307 OA
HETATM   22  H   UNK N   1      13.785   2.379 114.199  0.00  0.00     0.222 HD
ENDBRANCH  17  21
ENDBRANCH  16  17
ENDBRANCH  15  16
ENDBRANCH  13  15
ENDBRANCH   1  13
TORSDOF 13
ENDMDL
MODEL 4
REMARK VINA RESULT:      -5.1      2.251      4.077
REMARK  13 active torsions:
REMARK  status: ('A' for Active; 'I' for Inactive)
REMARK    1  A    between atoms: P_1  and  O_5 
REMARK    2  A    between atoms: P_1  and  O_8 
REMARK    3  A    between atoms: P_1  and  O_9 
REMARK    4  A    between atoms: O_2  and  C_11 
REMARK    5  A    between atoms: O_3  and  C_12 
REMARK    6  A    between atoms: O_4  and  C_13 
REMARK    7  A    between atoms: O_5  and  C_16 
REMARK    8  A    between atoms: O_6  and  C_15 
REMARK    9  A    between atoms: C_11  and  C_12 
REMARK   10  A    between atoms: C_11  and  C_13 
REMARK   11  A    between atoms: C_12  and  C_14 
REMARK   12  A    between atoms: C_13  and  C_15 
REMARK   13  A    between atoms: C_14  and  C_16 
ROOT
HETATM    1  C   UNK N   1      17.595   0.721 116.298  0.00  0.00     0.221 C 
ENDROOT
BRANCH   1   2
HETATM    2  O   UNK N   1      17.890   2.035 115.881  0.00  0.00    -0.385 OA
HETATM    3  H   UNK N   1      18.855   2.074 115.651  0.00  0.00     0.210 HD
ENDBRANCH   1   2
BRANCH   1   4
HETATM    4  C   UNK N   1      17.651   0.611 117.845  0.00  0.00     0.185 C 
BRANCH   4   5
HETATM    5  O   UNK N   1      17.495  -0.738 118.213  0.00  0.00    -0.390 OA
HETATM    6  H   UNK N   1      17.837  -0.833 119.140  0.00  0.00     0.210 HD
ENDBRANCH   4   5
BRANCH   4   7
HETATM    7  C   UNK N   1      16.556   1.478 118.522  0.00  0.00     0.173 C 
BRANCH   7   8
HETATM    8  O   UNK N   1      16.794   2.846 118.291  0.00  0.00    -0.391 OA
HETATM    9  H   UNK N   1      17.167   2.935 117.374  0.00  0.00     0.210 HD
ENDBRANCH   7   8
BRANCH   7  10
HETATM   10  C   UNK N   1      16.448   1.210 120.034  0.00  0.00     0.198 C 
BRANCH  10  11
HETATM   11  O   UNK N   1      15.929   2.340 120.676  0.00  0.00    -0.398 OA
HETATM   12  H   UNK N   1      15.378   2.811 119.998  0.00  0.00     0.209 HD
ENDBRANCH  10  11
ENDBRANCH   7  10
ENDBRANCH   4   7
ENDBRANCH   1   4
BRANCH   1  13
HETATM   13  C   UNK N   1      16.263   0.267 115.725  0.00  0.00     0.181 C 
HETATM   14  O   UNK N   1      16.163  -0.839 115.215  0.00  0.00    -0.293 OA
BRANCH  13  15
HETATM   15  C   UNK N   1      15.055   1.160 115.807  0.00  0.00     0.261 C 
BRANCH  15  16
HETATM   16  O   UNK N   1      14.567   1.430 114.516  0.00  0.00    -0.290 OA
BRANCH  16  17
HETATM   17  P   UNK N   1      15.312   2.915 113.989  0.00  0.00     0.391 P 
HETATM   18  O   UNK N   1      16.518   2.508 113.102  0.00  0.00    -0.632 OA
BRANCH  17  19
HETATM   19  O   UNK N   1      15.923   3.811 115.347  0.00  0.00    -0.307 OA
HETATM   20  H   UNK N   1      16.715   4.293 115.002  0.00  0.00     0.222 HD
ENDBRANCH  17  19
BRANCH  17  21
HETATM   21  O   UNK N   1      14.211   3.836 113.010  0.00  0.00    -0.307 OA
HETATM   22  H   UNK N   1      13.347   3.357 113.076  0.00  0.00     0.222 HD
ENDBRANCH  17  21
ENDBRANCH  16  17
ENDBRANCH  15  16
ENDBRANCH  13  15
ENDBRANCH   1  13
TORSDOF 13
ENDMDL
MODEL 5
REMARK VINA RESULT:      -5.0      2.507      4.525
REMARK  13 active torsions:
REMARK  status: ('A' for Active; 'I' for Inactive)
REMARK    1  A    between atoms: P_1  and  O_5 
REMARK    2  A    between atoms: P_1  and  O_8 
REMARK    3  A    between atoms: P_1  and  O_9 
REMARK    4  A    between atoms: O_2  and  C_11 
REMARK    5  A    between atoms: O_3  and  C_12 
REMARK    6  A    between atoms: O_4  and  C_13 
REMARK    7  A    between atoms: O_5  and  C_16 
REMARK    8  A    between atoms: O_6  and  C_15 
REMARK    9  A    between atoms: C_11  and  C_12 
REMARK   10  A    between atoms: C_11  and  C_13 
REMARK   11  A    between atoms: C_12  and  C_14 
REMARK   12  A    between atoms: C_13  and  C_15 
REMARK   13  A    between atoms: C_14  and  C_16 
ROOT
HETATM    1  C   UNK N   1      16.820   0.425 117.899  0.00  0.00     0.221 C 
ENDROOT
BRANCH   1   2
HETATM    2  O   UNK N   1      15.991  -0.283 117.006  0.00  0.00    -0.385 OA
HETATM    3  H   UNK N   1      15.571  -1.032 117.505  0.00  0.00     0.210 HD
ENDBRANCH   1   2
BRANCH   1   4
HETATM    4  C   UNK N   1      18.315   0.236 117.527  0.00  0.00     0.185 C 
BRANCH   4   5
HETATM    5  O   UNK N   1      18.431   0.153 116.128  0.00  0.00    -0.390 OA
HETATM    6  H   UNK N   1      17.638  -0.342 115.795  0.00  0.00     0.210 HD
ENDBRANCH   4   5
BRANCH   4   7
HETATM    7  C   UNK N   1      18.915  -1.033 118.189  0.00  0.00     0.173 C 
BRANCH   7   8
HETATM    8  O   UNK N   1      18.031  -2.121 118.067  0.00  0.00    -0.391 OA
HETATM    9  H   UNK N   1      18.201  -2.734 118.831  0.00  0.00     0.210 HD
ENDBRANCH   7   8
BRANCH   7  10
HETATM   10  C   UNK N   1      19.273  -0.807 119.669  0.00  0.00     0.198 C 
BRANCH  10  11
HETATM   11  O   UNK N   1      20.640  -1.038 119.862  0.00  0.00    -0.398 OA
HETATM   12  H   UNK N   1      21.077  -0.842 118.992  0.00  0.00     0.209 HD
ENDBRANCH  10  11
ENDBRANCH   7  10
ENDBRANCH   4   7
ENDBRANCH   1   4
BRANCH   1  13
HETATM   13  C   UNK N   1      16.411   1.887 117.960  0.00  0.00     0.181 C 
HETATM   14  O   UNK N   1      16.507   2.505 119.009  0.00  0.00    -0.293 OA
BRANCH  13  15
HETATM   15  C   UNK N   1      15.913   2.590 116.726  0.00  0.00     0.261 C 
BRANCH  15  16
HETATM   16  O   UNK N   1      16.890   2.537 115.715  0.00  0.00    -0.290 OA
BRANCH  16  17
HETATM   17  P   UNK N   1      16.084   2.040 114.252  0.00  0.00     0.391 P 
HETATM   18  O   UNK N   1      16.195   3.233 113.265  0.00  0.00    -0.632 OA
BRANCH  17  19
HETATM   19  O   UNK N   1      14.397   1.746 114.550  0.00  0.00    -0.307 OA
HETATM   20  H   UNK N   1      14.295   1.809 115.531  0.00  0.00     0.222 HD
ENDBRANCH  17  19
BRANCH  17  21
HETATM   21  O   UNK N   1      16.894   0.677 113.542  0.00  0.00    -0.307 OA
HETATM   22  H   UNK N   1      16.394  -0.114 113.863  0.00  0.00     0.222 HD
ENDBRANCH  17  21
ENDBRANCH  16  17
ENDBRANCH  15  16
ENDBRANCH  13  15
ENDBRANCH   1  13
TORSDOF 13
ENDMDL
MODEL 6
REMARK VINA RESULT:      -5.0     16.379     17.451
REMARK  13 active torsions:
REMARK  status: ('A' for Active; 'I' for Inactive)
REMARK    1  A    between atoms: P_1  and  O_5 
REMARK    2  A    between atoms: P_1  and  O_8 
REMARK    3  A    between atoms: P_1  and  O_9 
REMARK    4  A    between atoms: O_2  and  C_11 
REMARK    5  A    between atoms: O_3  and  C_12 
REMARK    6  A    between atoms: O_4  and  C_13 
REMARK    7  A    between atoms: O_5  and  C_16 
REMARK    8  A    between atoms: O_6  and  C_15 
REMARK    9  A    between atoms: C_11  and  C_12 
REMARK   10  A    between atoms: C_11  and  C_13 
REMARK   11  A    between atoms: C_12  and  C_14 
REMARK   12  A    between atoms: C_13  and  C_15 
REMARK   13  A    between atoms: C_14  and  C_16 
ROOT
HETATM    1  C   UNK N   1      29.367  11.206 123.659  0.00  0.00     0.221 C 
ENDROOT
BRANCH   1   2
HETATM    2  O   UNK N   1      30.627  10.676 123.319  0.00  0.00    -0.385 OA
HETATM    3  H   UNK N   1      30.554   9.686 123.319  0.00  0.00     0.210 HD
ENDBRANCH   1   2
BRANCH   1   4
HETATM    4  C   UNK N   1      29.517  12.606 124.311  0.00  0.00     0.185 C 
BRANCH   4   5
HETATM    5  O   UNK N   1      30.884  12.875 124.507  0.00  0.00    -0.390 OA
HETATM    6  H   UNK N   1      30.966  13.390 125.352  0.00  0.00     0.210 HD
ENDBRANCH   4   5
BRANCH   4   7
HETATM    7  C   UNK N   1      28.757  12.695 125.662  0.00  0.00     0.173 C 
BRANCH   7   8
HETATM    8  O   UNK N   1      27.842  11.633 125.786  0.00  0.00    -0.391 OA
HETATM    9  H   UNK N   1      27.660  11.285 124.874  0.00  0.00     0.210 HD
ENDBRANCH   7   8
BRANCH   7  10
HETATM   10  C   UNK N   1      28.030  14.041 125.837  0.00  0.00     0.198 C 
BRANCH  10  11
HETATM   11  O   UNK N   1      27.508  14.127 127.132  0.00  0.00    -0.398 OA
HETATM   12  H   UNK N   1      27.312  15.088 127.286  0.00  0.00     0.209 HD
ENDBRANCH  10  11
ENDBRANCH   7  10
ENDBRANCH   4   7
ENDBRANCH   1   4
BRANCH   1  13
HETATM   13  C   UNK N   1      28.449  11.218 122.448  0.00  0.00     0.181 C 
HETATM   14  O   UNK N   1      27.238  11.183 122.598  0.00  0.00    -0.293 OA
BRANCH  13  15
HETATM   15  C   UNK N   1      29.025  11.305 121.059  0.00  0.00     0.261 C 
BRANCH  15  16
HETATM   16  O   UNK N   1      28.387  10.377 120.216  0.00  0.00    -0.290 OA
BRANCH  16  17
HETATM   17  P   UNK N   1      29.617   9.285 119.637  0.00  0.00     0.391 P 
HETATM   18  O   UNK N   1      30.142   9.886 118.306  0.00  0.00    -0.632 OA
BRANCH  17  19
HETATM   19  O   UNK N   1      28.937   7.724 119.290  0.00  0.00    -0.307 OA
HETATM   20  H   UNK N   1      29.230   7.145 120.036  0.00  0.00     0.222 HD
ENDBRANCH  17  19
BRANCH  17  21
HETATM   21  O   UNK N   1      30.944   9.213 120.756  0.00  0.00    -0.307 OA
HETATM   22  H   UNK N   1      30.573   9.535 121.615  0.00  0.00     0.222 HD
ENDBRANCH  17  21
ENDBRANCH  16  17
ENDBRANCH  15  16
ENDBRANCH  13  15
ENDBRANCH   1  13
TORSDOF 13
ENDMDL
MODEL 7
REMARK VINA RESULT:      -5.0     19.326     20.973
REMARK  13 active torsions:
REMARK  status: ('A' for Active; 'I' for Inactive)
REMARK    1  A    between atoms: P_1  and  O_5 
REMARK    2  A    between atoms: P_1  and  O_8 
REMARK    3  A    between atoms: P_1  and  O_9 
REMARK    4  A    between atoms: O_2  and  C_11 
REMARK    5  A    between atoms: O_3  and  C_12 
REMARK    6  A    between atoms: O_4  and  C_13 
REMARK    7  A    between atoms: O_5  and  C_16 
REMARK    8  A    between atoms: O_6  and  C_15 
REMARK    9  A    between atoms: C_11  and  C_12 
REMARK   10  A    between atoms: C_11  and  C_13 
REMARK   11  A    between atoms: C_12  and  C_14 
REMARK   12  A    between atoms: C_13  and  C_15 
REMARK   13  A    between atoms: C_14  and  C_16 
ROOT
HETATM    1  C   UNK N   1      34.464  -8.749 117.745  0.00  0.00     0.221 C 
ENDROOT
BRANCH   1   2
HETATM    2  O   UNK N   1      33.976  -8.223 118.958  0.00  0.00    -0.385 OA
HETATM    3  H   UNK N   1      34.728  -8.197 119.605  0.00  0.00     0.210 HD
ENDBRANCH   1   2
BRANCH   1   4
HETATM    4  C   UNK N   1      35.660  -7.909 117.223  0.00  0.00     0.185 C 
BRANCH   4   5
HETATM    5  O   UNK N   1      36.691  -7.939 118.179  0.00  0.00    -0.390 OA
HETATM    6  H   UNK N   1      36.490  -8.680 118.808  0.00  0.00     0.210 HD
ENDBRANCH   4   5
BRANCH   4   7
HETATM    7  C   UNK N   1      35.246  -6.442 116.929  0.00  0.00     0.173 C 
BRANCH   7   8
HETATM    8  O   UNK N   1      35.541  -6.102 115.596  0.00  0.00    -0.391 OA
HETATM    9  H   UNK N   1      35.369  -5.129 115.489  0.00  0.00     0.210 HD
ENDBRANCH   7   8
BRANCH   7  10
HETATM   10  C   UNK N   1      35.915  -5.442 117.889  0.00  0.00     0.198 C 
BRANCH  10  11
HETATM   11  O   UNK N   1      35.490  -5.692 119.199  0.00  0.00    -0.398 OA
HETATM   12  H   UNK N   1      34.738  -5.066 119.367  0.00  0.00     0.209 HD
ENDBRANCH  10  11
ENDBRANCH   7  10
ENDBRANCH   4   7
ENDBRANCH   1   4
BRANCH   1  13
HETATM   13  C   UNK N   1      34.805 -10.222 117.902  0.00  0.00     0.181 C 
HETATM   14  O   UNK N   1      35.969 -10.588 117.848  0.00  0.00    -0.293 OA
BRANCH  13  15
HETATM   15  C   UNK N   1      33.718 -11.232 118.154  0.00  0.00     0.261 C 
BRANCH  15  16
HETATM   16  O   UNK N   1      32.797 -10.723 119.087  0.00  0.00    -0.290 OA
BRANCH  16  17
HETATM   17  P   UNK N   1      31.207 -10.951 118.409  0.00  0.00     0.391 P 
HETATM   18  O   UNK N   1      30.899 -12.469 118.519  0.00  0.00    -0.632 OA
BRANCH  17  19
HETATM   19  O   UNK N   1      31.190 -10.521 116.725  0.00  0.00    -0.307 OA
HETATM   20  H   UNK N   1      30.241 -10.340 116.516  0.00  0.00     0.222 HD
ENDBRANCH  17  19
BRANCH  17  21
HETATM   21  O   UNK N   1      30.018 -10.092 119.339  0.00  0.00    -0.307 OA
HETATM   22  H   UNK N   1      29.616  -9.445 118.708  0.00  0.00     0.222 HD
ENDBRANCH  17  21
ENDBRANCH  16  17
ENDBRANCH  15  16
ENDBRANCH  13  15
ENDBRANCH   1  13
TORSDOF 13
ENDMDL
MODEL 8
REMARK VINA RESULT:      -4.9     15.732     16.982
REMARK  13 active torsions:
REMARK  status: ('A' for Active; 'I' for Inactive)
REMARK    1  A    between atoms: P_1  and  O_5 
REMARK    2  A    between atoms: P_1  and  O_8 
REMARK    3  A    between atoms: P_1  and  O_9 
REMARK    4  A    between atoms: O_2  and  C_11 
REMARK    5  A    between atoms: O_3  and  C_12 
REMARK    6  A    between atoms: O_4  and  C_13 
REMARK    7  A    between atoms: O_5  and  C_16 
REMARK    8  A    between atoms: O_6  and  C_15 
REMARK    9  A    between atoms: C_11  and  C_12 
REMARK   10  A    between atoms: C_11  and  C_13 
REMARK   11  A    between atoms: C_12  and  C_14 
REMARK   12  A    between atoms: C_13  and  C_15 
REMARK   13  A    between atoms: C_14  and  C_16 
ROOT
HETATM    1  C   UNK N   1      29.171   9.681 119.729  0.00  0.00     0.221 C 
ENDROOT
BRANCH   1   2
HETATM    2  O   UNK N   1      29.182  10.070 118.374  0.00  0.00    -0.385 OA
HETATM    3  H   UNK N   1      28.541   9.492 117.884  0.00  0.00     0.210 HD
ENDBRANCH   1   2
BRANCH   1   4
HETATM    4  C   UNK N   1      30.536   9.064 120.134  0.00  0.00     0.185 C 
BRANCH   4   5
HETATM    5  O   UNK N   1      31.557   9.686 119.394  0.00  0.00    -0.390 OA
HETATM    6  H   UNK N   1      31.783  10.534 119.858  0.00  0.00     0.210 HD
ENDBRANCH   4   5
BRANCH   4   7
HETATM    7  C   UNK N   1      30.565   7.530 119.898  0.00  0.00     0.173 C 
BRANCH   7   8
HETATM    8  O   UNK N   1      29.410   7.112 119.211  0.00  0.00    -0.391 OA
HETATM    9  H   UNK N   1      28.745   7.849 119.264  0.00  0.00     0.210 HD
ENDBRANCH   7   8
BRANCH   7  10
HETATM   10  C   UNK N   1      30.713   6.738 121.210  0.00  0.00     0.198 C 
BRANCH  10  11
HETATM   11  O   UNK N   1      30.121   7.451 122.259  0.00  0.00    -0.398 OA
HETATM   12  H   UNK N   1      30.823   8.059 122.609  0.00  0.00     0.209 HD
ENDBRANCH  10  11
ENDBRANCH   7  10
ENDBRANCH   4   7
ENDBRANCH   1   4
BRANCH   1  13
HETATM   13  C   UNK N   1      28.768  10.848 120.615  0.00  0.00     0.181 C 
HETATM   14  O   UNK N   1      27.755  11.483 120.365  0.00  0.00    -0.293 OA
BRANCH  13  15
HETATM   15  C   UNK N   1      29.595  11.209 121.819  0.00  0.00     0.261 C 
BRANCH  15  16
HETATM   16  O   UNK N   1      28.832  11.054 122.991  0.00  0.00    -0.290 OA
BRANCH  16  17
HETATM   17  P   UNK N   1      29.956  10.905 124.315  0.00  0.00     0.391 P 
HETATM   18  O   UNK N   1      30.546   9.472 124.229  0.00  0.00    -0.632 OA
BRANCH  17  19
HETATM   19  O   UNK N   1      29.133  11.055 125.839  0.00  0.00    -0.307 OA
HETATM   20  H   UNK N   1      28.905  12.014 125.914  0.00  0.00     0.222 HD
ENDBRANCH  17  19
BRANCH  17  21
HETATM   21  O   UNK N   1      31.262  12.037 124.137  0.00  0.00    -0.307 OA
HETATM   22  H   UNK N   1      30.907  12.895 124.479  0.00  0.00     0.222 HD
ENDBRANCH  17  21
ENDBRANCH  16  17
ENDBRANCH  15  16
ENDBRANCH  13  15
ENDBRANCH   1  13
TORSDOF 13
ENDMDL
MODEL 9
REMARK VINA RESULT:      -4.8     19.610     21.444
REMARK  13 active torsions:
REMARK  status: ('A' for Active; 'I' for Inactive)
REMARK    1  A    between atoms: P_1  and  O_5 
REMARK    2  A    between atoms: P_1  and  O_8 
REMARK    3  A    between atoms: P_1  and  O_9 
REMARK    4  A    between atoms: O_2  and  C_11 
REMARK    5  A    between atoms: O_3  and  C_12 
REMARK    6  A    between atoms: O_4  and  C_13 
REMARK    7  A    between atoms: O_5  and  C_16 
REMARK    8  A    between atoms: O_6  and  C_15 
REMARK    9  A    between atoms: C_11  and  C_12 
REMARK   10  A    between atoms: C_11  and  C_13 
REMARK   11  A    between atoms: C_12  and  C_14 
REMARK   12  A    between atoms: C_13  and  C_15 
REMARK   13  A    between atoms: C_14  and  C_16 
ROOT
HETATM    1  C   UNK N   1      36.027  -5.535 115.996  0.00  0.00     0.221 C 
ENDROOT
BRANCH   1   2
HETATM    2  O   UNK N   1      35.063  -5.037 115.096  0.00  0.00    -0.385 OA
HETATM    3  H   UNK N   1      34.229  -5.563 115.217  0.00  0.00     0.210 HD
ENDBRANCH   1   2
BRANCH   1   4
HETATM    4  C   UNK N   1      37.129  -4.475 116.261  0.00  0.00     0.185 C 
BRANCH   4   5
HETATM    5  O   UNK N   1      37.278  -3.674 115.115  0.00  0.00    -0.390 OA
HETATM    6  H   UNK N   1      37.525  -4.274 114.364  0.00  0.00     0.210 HD
ENDBRANCH   4   5
BRANCH   4   7
HETATM    7  C   UNK N   1      38.484  -5.137 116.629  0.00  0.00     0.173 C 
BRANCH   7   8
HETATM    8  O   UNK N   1      38.585  -5.317 118.021  0.00  0.00    -0.391 OA
HETATM    9  H   UNK N   1      37.980  -6.064 118.272  0.00  0.00     0.210 HD
ENDBRANCH   7   8
BRANCH   7  10
HETATM   10  C   UNK N   1      39.689  -4.330 116.113  0.00  0.00     0.198 C 
BRANCH  10  11
HETATM   11  O   UNK N   1      39.740  -3.093 116.765  0.00  0.00    -0.398 OA
HETATM   12  H   UNK N   1      40.206  -3.256 117.626  0.00  0.00     0.209 HD
ENDBRANCH  10  11
ENDBRANCH   7  10
ENDBRANCH   4   7
ENDBRANCH   1   4
BRANCH   1  13
HETATM   13  C   UNK N   1      35.362  -6.022 117.272  0.00  0.00     0.181 C 
HETATM   14  O   UNK N   1      35.458  -5.367 118.299  0.00  0.00    -0.293 OA
BRANCH  13  15
HETATM   15  C   UNK N   1      34.561  -7.296 117.274  0.00  0.00     0.261 C 
BRANCH  15  16
HETATM   16  O   UNK N   1      34.724  -7.966 118.500  0.00  0.00    -0.290 OA
BRANCH  16  17
HETATM   17  P   UNK N   1      33.512  -9.218 118.562  0.00  0.00     0.391 P 
HETATM   18  O   UNK N   1      34.048 -10.296 119.542  0.00  0.00    -0.632 OA
BRANCH  17  19
HETATM   19  O   UNK N   1      33.315  -9.960 117.003  0.00  0.00    -0.307 OA
HETATM   20  H   UNK N   1      34.224  -9.982 116.613  0.00  0.00     0.222 HD
ENDBRANCH  17  19
BRANCH  17  21
HETATM   21  O   UNK N   1      32.025  -8.595 119.209  0.00  0.00    -0.307 OA
HETATM   22  H   UNK N   1      32.163  -8.564 120.188  0.00  0.00     0.222 HD
ENDBRANCH  17  21
ENDBRANCH  16  17
ENDBRANCH  15  16
ENDBRANCH  13  15
ENDBRANCH   1  13
TORSDOF 13
ENDMDL
