MODEL 1
REMARK VINA RESULT:      -4.8      0.000      0.000
REMARK  10 active torsions:
REMARK  status: ('A' for Active; 'I' for Inactive)
REMARK    1  A    between atoms: O_1  and  C_7 
REMARK    2  A    between atoms: O_2  and  C_8 
REMARK    3  A    between atoms: O_3  and  C_9 
REMARK    4  A    between atoms: O_4  and  C_10 
REMARK    5  A    between atoms: O_6  and  C_12 
REMARK    6  A    between atoms: C_7  and  C_8 
REMARK    7  A    between atoms: C_7  and  C_9 
REMARK    8  A    between atoms: C_8  and  C_10 
REMARK    9  A    between atoms: C_9  and  C_11 
REMARK   10  A    between atoms: C_11  and  C_12 
ROOT
HETATM    1  C   UNK N   1      38.374  -2.507 114.171  0.00  0.00     0.185 C 
ENDROOT
BRANCH   1   2
HETATM    2  O   UNK N   1      37.701  -2.026 115.308  0.00  0.00    -0.390 OA
HETATM    3  H   UNK N   1      37.342  -1.130 115.082  0.00  0.00     0.210 HD
ENDBRANCH   1   2
BRANCH   1   4
HETATM    4  C   UNK N   1      39.176  -3.789 114.528  0.00  0.00     0.173 C 
BRANCH   4   5
HETATM    5  O   UNK N   1      39.167  -4.693 113.450  0.00  0.00    -0.391 OA
HETATM    6  H   UNK N   1      40.091  -4.734 113.084  0.00  0.00     0.210 HD
ENDBRANCH   4   5
BRANCH   4   7
HETATM    7  C   UNK N   1      38.638  -4.479 115.796  0.00  0.00     0.198 C 
BRANCH   7   8
HETATM    8  O   UNK N   1      39.207  -3.891 116.933  0.00  0.00    -0.398 OA
HETATM    9  H   UNK N   1      39.210  -4.596 117.633  0.00  0.00     0.209 HD
ENDBRANCH   7   8
ENDBRANCH   4   7
ENDBRANCH   1   4
BRANCH   1  10
HETATM   10  C   UNK N   1      39.290  -1.382 113.613  0.00  0.00     0.221 C 
BRANCH  10  11
HETATM   11  O   UNK N   1      40.417  -1.927 112.968  0.00  0.00    -0.385 OA
HETATM   12  H   UNK N   1      40.913  -2.479 113.629  0.00  0.00     0.210 HD
ENDBRANCH  10  11
BRANCH  10  13
HETATM   13  C   UNK N   1      39.714  -0.390 114.686  0.00  0.00     0.181 C 
HETATM   14  O   UNK N   1      39.115   0.667 114.811  0.00  0.00    -0.293 OA
BRANCH  13  15
HETATM   15  C   UNK N   1      40.854  -0.718 115.622  0.00  0.00     0.245 C 
BRANCH  15  16
HETATM   16  O   UNK N   1      40.386  -1.266 116.827  0.00  0.00    -0.393 OA
HETATM   17  H   UNK N   1      39.865  -2.076 116.586  0.00  0.00     0.209 HD
ENDBRANCH  15  16
ENDBRANCH  13  15
ENDBRANCH  10  13
ENDBRANCH   1  10
TORSDOF 10
ENDMDL
MODEL 2
REMARK VINA RESULT:      -4.7     21.760     23.118
REMARK  10 active torsions:
REMARK  status: ('A' for Active; 'I' for Inactive)
REMARK    1  A    between atoms: O_1  and  C_7 
REMARK    2  A    between atoms: O_2  and  C_8 
REMARK    3  A    between atoms: O_3  and  C_9 
REMARK    4  A    between atoms: O_4  and  C_10 
REMARK    5  A    between atoms: O_6  and  C_12 
REMARK    6  A    between atoms: C_7  and  C_8 
REMARK    7  A    between atoms: C_7  and  C_9 
REMARK    8  A    between atoms: C_8  and  C_10 
REMARK    9  A    between atoms: C_9  and  C_11 
REMARK   10  A    between atoms: C_11  and  C_12 
ROOT
HETATM    1  C   UNK N   1      16.410   2.134 115.030  0.00  0.00     0.185 C 
ENDROOT
BRANCH   1   2
HETATM    2  O   UNK N   1      17.096   2.995 115.905  0.00  0.00    -0.390 OA
HETATM    3  H   UNK N   1      16.879   3.925 115.635  0.00  0.00     0.210 HD
ENDBRANCH   1   2
BRANCH   1   4
HETATM    4  C   UNK N   1      15.045   1.722 115.647  0.00  0.00     0.173 C 
BRANCH   4   5
HETATM    5  O   UNK N   1      14.159   1.291 114.643  0.00  0.00    -0.391 OA
HETATM    6  H   UNK N   1      13.306   1.788 114.761  0.00  0.00     0.210 HD
ENDBRANCH   4   5
BRANCH   4   7
HETATM    7  C   UNK N   1      14.403   2.865 116.458  0.00  0.00     0.198 C 
BRANCH   7   8
HETATM    8  O   UNK N   1      14.247   3.994 115.644  0.00  0.00    -0.398 OA
HETATM    9  H   UNK N   1      15.133   4.152 115.224  0.00  0.00     0.209 HD
ENDBRANCH   7   8
ENDBRANCH   4   7
ENDBRANCH   1   4
BRANCH   1  10
HETATM   10  C   UNK N   1      17.308   0.904 114.725  0.00  0.00     0.221 C 
BRANCH  10  11
HETATM   11  O   UNK N   1      16.523  -0.237 114.463  0.00  0.00    -0.385 OA
HETATM   12  H   UNK N   1      16.617  -0.460 113.500  0.00  0.00     0.210 HD
ENDBRANCH  10  11
BRANCH  10  13
HETATM   13  C   UNK N   1      18.309   0.623 115.836  0.00  0.00     0.181 C 
HETATM   14  O   UNK N   1      17.953   0.672 117.003  0.00  0.00    -0.293 OA
BRANCH  13  15
HETATM   15  C   UNK N   1      19.735   0.250 115.505  0.00  0.00     0.245 C 
BRANCH  15  16
HETATM   16  O   UNK N   1      19.950   0.228 114.118  0.00  0.00    -0.393 OA
HETATM   17  H   UNK N   1      19.489   1.026 113.747  0.00  0.00     0.209 HD
ENDBRANCH  15  16
ENDBRANCH  13  15
ENDBRANCH  10  13
ENDBRANCH   1  10
TORSDOF 10
ENDMDL
MODEL 3
REMARK VINA RESULT:      -4.6     21.852     23.181
REMARK  10 active torsions:
REMARK  status: ('A' for Active; 'I' for Inactive)
REMARK    1  A    between atoms: O_1  and  C_7 
REMARK    2  A    between atoms: O_2  and  C_8 
REMARK    3  A    between atoms: O_3  and  C_9 
REMARK    4  A    between atoms: O_4  and  C_10 
REMARK    5  A    between atoms: O_6  and  C_12 
REMARK    6  A    between atoms: C_7  and  C_8 
REMARK    7  A    between atoms: C_7  and  C_9 
REMARK    8  A    between atoms: C_8  and  C_10 
REMARK    9  A    between atoms: C_9  and  C_11 
REMARK   10  A    between atoms: C_11  and  C_12 
ROOT
HETATM    1  C   UNK N   1      17.150   1.405 115.777  0.00  0.00     0.185 C 
ENDROOT
BRANCH   1   2
HETATM    2  O   UNK N   1      18.064   1.373 116.846  0.00  0.00    -0.390 OA
HETATM    3  H   UNK N   1      18.971   1.281 116.456  0.00  0.00     0.210 HD
ENDBRANCH   1   2
BRANCH   1   4
HETATM    4  C   UNK N   1      17.845   0.941 114.467  0.00  0.00     0.173 C 
BRANCH   4   5
HETATM    5  O   UNK N   1      16.895   0.452 113.551  0.00  0.00    -0.391 OA
HETATM    6  H   UNK N   1      15.993   0.625 113.933  0.00  0.00     0.210 HD
ENDBRANCH   4   5
BRANCH   4   7
HETATM    7  C   UNK N   1      18.923  -0.129 114.726  0.00  0.00     0.198 C 
BRANCH   7   8
HETATM    8  O   UNK N   1      20.120   0.244 114.104  0.00  0.00    -0.398 OA
HETATM    9  H   UNK N   1      19.865   0.607 113.215  0.00  0.00     0.209 HD
ENDBRANCH   7   8
ENDBRANCH   4   7
ENDBRANCH   1   4
BRANCH   1  10
HETATM   10  C   UNK N   1      16.568   2.841 115.653  0.00  0.00     0.221 C 
BRANCH  10  11
HETATM   11  O   UNK N   1      17.098   3.684 116.650  0.00  0.00    -0.385 OA
HETATM   12  H   UNK N   1      18.014   3.950 116.373  0.00  0.00     0.210 HD
ENDBRANCH  10  11
BRANCH  10  13
HETATM   13  C   UNK N   1      15.048   2.858 115.688  0.00  0.00     0.181 C 
HETATM   14  O   UNK N   1      14.444   3.892 115.446  0.00  0.00    -0.293 OA
BRANCH  13  15
HETATM   15  C   UNK N   1      14.275   1.595 115.991  0.00  0.00     0.245 C 
BRANCH  15  16
HETATM   16  O   UNK N   1      14.018   0.860 114.823  0.00  0.00    -0.393 OA
HETATM   17  H   UNK N   1      14.305  -0.073 115.006  0.00  0.00     0.209 HD
ENDBRANCH  15  16
ENDBRANCH  13  15
ENDBRANCH  10  13
ENDBRANCH   1  10
TORSDOF 10
ENDMDL
MODEL 4
REMARK VINA RESULT:      -4.5     18.656     20.345
REMARK  10 active torsions:
REMARK  status: ('A' for Active; 'I' for Inactive)
REMARK    1  A    between atoms: O_1  and  C_7 
REMARK    2  A    between atoms: O_2  and  C_8 
REMARK    3  A    between atoms: O_3  and  C_9 
REMARK    4  A    between atoms: O_4  and  C_10 
REMARK    5  A    between atoms: O_6  and  C_12 
REMARK    6  A    between atoms: C_7  and  C_8 
REMARK    7  A    between atoms: C_7  and  C_9 
REMARK    8  A    between atoms: C_8  and  C_10 
REMARK    9  A    between atoms: C_9  and  C_11 
REMARK   10  A    between atoms: C_11  and  C_12 
ROOT
HETATM    1  C   UNK N   1      29.173  11.968 125.331  0.00  0.00     0.185 C 
ENDROOT
BRANCH   1   2
HETATM    2  O   UNK N   1      27.924  11.508 125.784  0.00  0.00    -0.390 OA
HETATM    3  H   UNK N   1      27.229  12.067 125.350  0.00  0.00     0.210 HD
ENDBRANCH   1   2
BRANCH   1   4
HETATM    4  C   UNK N   1      29.054  13.435 124.833  0.00  0.00     0.173 C 
BRANCH   4   5
HETATM    5  O   UNK N   1      30.328  13.973 124.573  0.00  0.00    -0.391 OA
HETATM    6  H   UNK N   1      30.397  14.119 123.592  0.00  0.00     0.210 HD
ENDBRANCH   4   5
BRANCH   4   7
HETATM    7  C   UNK N   1      28.300  14.331 125.835  0.00  0.00     0.198 C 
BRANCH   7   8
HETATM    8  O   UNK N   1      26.969  14.481 125.427  0.00  0.00    -0.398 OA
HETATM    9  H   UNK N   1      26.446  13.819 125.952  0.00  0.00     0.209 HD
ENDBRANCH   7   8
ENDBRANCH   4   7
ENDBRANCH   1   4
BRANCH   1  10
HETATM   10  C   UNK N   1      29.690  11.013 124.219  0.00  0.00     0.221 C 
BRANCH  10  11
HETATM   11  O   UNK N   1      31.086  11.130 124.067  0.00  0.00    -0.385 OA
HETATM   12  H   UNK N   1      31.301  11.020 123.104  0.00  0.00     0.210 HD
ENDBRANCH  10  11
BRANCH  10  13
HETATM   13  C   UNK N   1      28.986  11.234 122.888  0.00  0.00     0.181 C 
HETATM   14  O   UNK N   1      27.767  11.201 122.831  0.00  0.00    -0.293 OA
BRANCH  13  15
HETATM   15  C   UNK N   1      29.785  11.526 121.640  0.00  0.00     0.245 C 
BRANCH  15  16
HETATM   16  O   UNK N   1      30.607  12.651 121.809  0.00  0.00    -0.393 OA
HETATM   17  H   UNK N   1      30.010  13.445 121.788  0.00  0.00     0.209 HD
ENDBRANCH  15  16
ENDBRANCH  13  15
ENDBRANCH  10  13
ENDBRANCH   1  10
TORSDOF 10
ENDMDL
MODEL 5
REMARK VINA RESULT:      -4.5      1.080      4.093
REMARK  10 active torsions:
REMARK  status: ('A' for Active; 'I' for Inactive)
REMARK    1  A    between atoms: O_1  and  C_7 
REMARK    2  A    between atoms: O_2  and  C_8 
REMARK    3  A    between atoms: O_3  and  C_9 
REMARK    4  A    between atoms: O_4  and  C_10 
REMARK    5  A    between atoms: O_6  and  C_12 
REMARK    6  A    between atoms: C_7  and  C_8 
REMARK    7  A    between atoms: C_7  and  C_9 
REMARK    8  A    between atoms: C_8  and  C_10 
REMARK    9  A    between atoms: C_9  and  C_11 
REMARK   10  A    between atoms: C_11  and  C_12 
ROOT
HETATM    1  C   UNK N   1      39.842  -2.466 114.144  0.00  0.00     0.185 C 
ENDROOT
BRANCH   1   2
HETATM    2  O   UNK N   1      40.873  -3.236 114.712  0.00  0.00    -0.390 OA
HETATM    3  H   UNK N   1      41.581  -3.335 114.025  0.00  0.00     0.210 HD
ENDBRANCH   1   2
BRANCH   1   4
HETATM    4  C   UNK N   1      39.933  -0.998 114.647  0.00  0.00     0.173 C 
BRANCH   4   5
HETATM    5  O   UNK N   1      39.781  -0.945 116.045  0.00  0.00    -0.391 OA
HETATM    6  H   UNK N   1      40.686  -0.829 116.441  0.00  0.00     0.210 HD
ENDBRANCH   4   5
BRANCH   4   7
HETATM    7  C   UNK N   1      38.892  -0.086 113.971  0.00  0.00     0.198 C 
BRANCH   7   8
HETATM    8  O   UNK N   1      38.879   1.165 114.600  0.00  0.00    -0.398 OA
HETATM    9  H   UNK N   1      38.279   1.739 114.054  0.00  0.00     0.209 HD
ENDBRANCH   7   8
ENDBRANCH   4   7
ENDBRANCH   1   4
BRANCH   1  10
HETATM   10  C   UNK N   1      38.475  -3.119 114.489  0.00  0.00     0.221 C 
BRANCH  10  11
HETATM   11  O   UNK N   1      37.732  -2.295 115.359  0.00  0.00    -0.385 OA
HETATM   12  H   UNK N   1      37.176  -2.881 115.937  0.00  0.00     0.210 HD
ENDBRANCH  10  11
BRANCH  10  13
HETATM   13  C   UNK N   1      38.626  -4.515 115.072  0.00  0.00     0.181 C 
HETATM   14  O   UNK N   1      38.815  -5.468 114.331  0.00  0.00    -0.293 OA
BRANCH  13  15
HETATM   15  C   UNK N   1      38.577  -4.730 116.567  0.00  0.00     0.245 C 
BRANCH  15  16
HETATM   16  O   UNK N   1      39.384  -3.802 117.244  0.00  0.00    -0.393 OA
HETATM   17  H   UNK N   1      39.633  -3.105 116.581  0.00  0.00     0.209 HD
ENDBRANCH  15  16
ENDBRANCH  13  15
ENDBRANCH  10  13
ENDBRANCH   1  10
TORSDOF 10
ENDMDL
MODEL 6
REMARK VINA RESULT:      -4.4     14.018     15.574
REMARK  10 active torsions:
REMARK  status: ('A' for Active; 'I' for Inactive)
REMARK    1  A    between atoms: O_1  and  C_7 
REMARK    2  A    between atoms: O_2  and  C_8 
REMARK    3  A    between atoms: O_3  and  C_9 
REMARK    4  A    between atoms: O_4  and  C_10 
REMARK    5  A    between atoms: O_6  and  C_12 
REMARK    6  A    between atoms: C_7  and  C_8 
REMARK    7  A    between atoms: C_7  and  C_9 
REMARK    8  A    between atoms: C_8  and  C_10 
REMARK    9  A    between atoms: C_9  and  C_11 
REMARK   10  A    between atoms: C_11  and  C_12 
ROOT
HETATM    1  C   UNK N   1      37.034  -2.533  99.068  0.00  0.00     0.185 C 
ENDROOT
BRANCH   1   2
HETATM    2  O   UNK N   1      37.673  -1.623  98.207  0.00  0.00    -0.390 OA
HETATM    3  H   UNK N   1      38.621  -1.563  98.493  0.00  0.00     0.210 HD
ENDBRANCH   1   2
BRANCH   1   4
HETATM    4  C   UNK N   1      35.506  -2.251  99.106  0.00  0.00     0.173 C 
BRANCH   4   5
HETATM    5  O   UNK N   1      34.968  -2.614 100.354  0.00  0.00    -0.391 OA
HETATM    6  H   UNK N   1      34.207  -3.231 100.185  0.00  0.00     0.210 HD
ENDBRANCH   4   5
BRANCH   4   7
HETATM    7  C   UNK N   1      34.751  -2.977  97.977  0.00  0.00     0.198 C 
BRANCH   7   8
HETATM    8  O   UNK N   1      33.380  -2.994  98.258  0.00  0.00    -0.398 OA
HETATM    9  H   UNK N   1      33.275  -2.540  99.136  0.00  0.00     0.209 HD
ENDBRANCH   7   8
ENDBRANCH   4   7
ENDBRANCH   1   4
BRANCH   1  10
HETATM   10  C   UNK N   1      37.682  -2.436 100.477  0.00  0.00     0.221 C 
BRANCH  10  11
HETATM   11  O   UNK N   1      37.279  -1.255 101.133  0.00  0.00    -0.385 OA
HETATM   12  H   UNK N   1      36.685  -1.510 101.887  0.00  0.00     0.210 HD
ENDBRANCH  10  11
BRANCH  10  13
HETATM   13  C   UNK N   1      39.199  -2.530 100.429  0.00  0.00     0.181 C 
HETATM   14  O   UNK N   1      39.741  -3.194  99.558  0.00  0.00    -0.293 OA
BRANCH  13  15
HETATM   15  C   UNK N   1      40.045  -1.781 101.432  0.00  0.00     0.245 C 
BRANCH  15  16
HETATM   16  O   UNK N   1      41.343  -2.309 101.504  0.00  0.00    -0.393 OA
HETATM   17  H   UNK N   1      41.949  -1.626 101.112  0.00  0.00     0.209 HD
ENDBRANCH  15  16
ENDBRANCH  13  15
ENDBRANCH  10  13
ENDBRANCH   1  10
TORSDOF 10
ENDMDL
MODEL 7
REMARK VINA RESULT:      -4.4     14.376     16.071
REMARK  10 active torsions:
REMARK  status: ('A' for Active; 'I' for Inactive)
REMARK    1  A    between atoms: O_1  and  C_7 
REMARK    2  A    between atoms: O_2  and  C_8 
REMARK    3  A    between atoms: O_3  and  C_9 
REMARK    4  A    between atoms: O_4  and  C_10 
REMARK    5  A    between atoms: O_6  and  C_12 
REMARK    6  A    between atoms: C_7  and  C_8 
REMARK    7  A    between atoms: C_7  and  C_9 
REMARK    8  A    between atoms: C_8  and  C_10 
REMARK    9  A    between atoms: C_9  and  C_11 
REMARK   10  A    between atoms: C_11  and  C_12 
ROOT
HETATM    1  C   UNK N   1      37.627  -2.910  99.586  0.00  0.00     0.185 C 
ENDROOT
BRANCH   1   2
HETATM    2  O   UNK N   1      37.666  -4.313  99.665  0.00  0.00    -0.390 OA
HETATM    3  H   UNK N   1      37.507  -4.664  98.751  0.00  0.00     0.210 HD
ENDBRANCH   1   2
BRANCH   1   4
HETATM    4  C   UNK N   1      38.047  -2.287 100.947  0.00  0.00     0.173 C 
BRANCH   4   5
HETATM    5  O   UNK N   1      37.238  -1.178 101.253  0.00  0.00    -0.391 OA
HETATM    6  H   UNK N   1      37.821  -0.372 101.254  0.00  0.00     0.210 HD
ENDBRANCH   4   5
BRANCH   4   7
HETATM    7  C   UNK N   1      39.532  -1.875 100.965  0.00  0.00     0.198 C 
BRANCH   7   8
HETATM    8  O   UNK N   1      39.777  -1.033 102.056  0.00  0.00    -0.398 OA
HETATM    9  H   UNK N   1      40.420  -0.348 101.735  0.00  0.00     0.209 HD
ENDBRANCH   7   8
ENDBRANCH   4   7
ENDBRANCH   1   4
BRANCH   1  10
HETATM   10  C   UNK N   1      36.201  -2.467  99.157  0.00  0.00     0.221 C 
BRANCH  10  11
HETATM   11  O   UNK N   1      35.270  -2.711 100.186  0.00  0.00    -0.385 OA
HETATM   12  H   UNK N   1      35.753  -3.133 100.944  0.00  0.00     0.210 HD
ENDBRANCH  10  11
BRANCH  10  13
HETATM   13  C   UNK N   1      35.752  -3.126  97.861  0.00  0.00     0.181 C 
HETATM   14  O   UNK N   1      36.542  -3.261  96.940  0.00  0.00    -0.293 OA
BRANCH  13  15
HETATM   15  C   UNK N   1      34.340  -3.646  97.717  0.00  0.00     0.245 C 
BRANCH  15  16
HETATM   16  O   UNK N   1      33.405  -2.740  98.240  0.00  0.00    -0.393 OA
HETATM   17  H   UNK N   1      33.879  -1.874  98.351  0.00  0.00     0.209 HD
ENDBRANCH  15  16
ENDBRANCH  13  15
ENDBRANCH  10  13
ENDBRANCH   1  10
TORSDOF 10
ENDMDL
MODEL 8
REMARK VINA RESULT:      -4.4      4.798      6.489
REMARK  10 active torsions:
REMARK  status: ('A' for Active; 'I' for Inactive)
REMARK    1  A    between atoms: O_1  and  C_7 
REMARK    2  A    between atoms: O_2  and  C_8 
REMARK    3  A    between atoms: O_3  and  C_9 
REMARK    4  A    between atoms: O_4  and  C_10 
REMARK    5  A    between atoms: O_6  and  C_12 
REMARK    6  A    between atoms: C_7  and  C_8 
REMARK    7  A    between atoms: C_7  and  C_9 
REMARK    8  A    between atoms: C_8  and  C_10 
REMARK    9  A    between atoms: C_9  and  C_11 
REMARK   10  A    between atoms: C_11  and  C_12 
ROOT
HETATM    1  C   UNK N   1      34.934  -6.105 117.616  0.00  0.00     0.185 C 
ENDROOT
BRANCH   1   2
HETATM    2  O   UNK N   1      35.315  -6.056 118.969  0.00  0.00    -0.390 OA
HETATM    3  H   UNK N   1      34.575  -6.450 119.498  0.00  0.00     0.210 HD
ENDBRANCH   1   2
BRANCH   1   4
HETATM    4  C   UNK N   1      34.925  -7.576 117.116  0.00  0.00     0.173 C 
BRANCH   4   5
HETATM    5  O   UNK N   1      34.243  -7.677 115.890  0.00  0.00    -0.391 OA
HETATM    6  H   UNK N   1      33.734  -6.833 115.759  0.00  0.00     0.210 HD
ENDBRANCH   4   5
BRANCH   4   7
HETATM    7  C   UNK N   1      34.301  -8.538 118.146  0.00  0.00     0.198 C 
BRANCH   7   8
HETATM    8  O   UNK N   1      33.062  -8.040 118.568  0.00  0.00    -0.398 OA
HETATM    9  H   UNK N   1      32.416  -8.269 117.849  0.00  0.00     0.209 HD
ENDBRANCH   7   8
ENDBRANCH   4   7
ENDBRANCH   1   4
BRANCH   1  10
HETATM   10  C   UNK N   1      35.899  -5.212 116.787  0.00  0.00     0.221 C 
BRANCH  10  11
HETATM   11  O   UNK N   1      35.395  -5.002 115.488  0.00  0.00    -0.385 OA
HETATM   12  H   UNK N   1      34.417  -5.178 115.505  0.00  0.00     0.210 HD
ENDBRANCH  10  11
BRANCH  10  13
HETATM   13  C   UNK N   1      37.310  -5.776 116.730  0.00  0.00     0.181 C 
HETATM   14  O   UNK N   1      37.941  -5.946 117.762  0.00  0.00    -0.293 OA
BRANCH  13  15
HETATM   15  C   UNK N   1      37.928  -6.157 115.405  0.00  0.00     0.245 C 
BRANCH  15  16
HETATM   16  O   UNK N   1      37.078  -6.994 114.666  0.00  0.00    -0.393 OA
HETATM   17  H   UNK N   1      36.369  -6.413 114.284  0.00  0.00     0.209 HD
ENDBRANCH  15  16
ENDBRANCH  13  15
ENDBRANCH  10  13
ENDBRANCH   1  10
TORSDOF 10
ENDMDL
MODEL 9
REMARK VINA RESULT:      -4.4     18.808     20.374
REMARK  10 active torsions:
REMARK  status: ('A' for Active; 'I' for Inactive)
REMARK    1  A    between atoms: O_1  and  C_7 
REMARK    2  A    between atoms: O_2  and  C_8 
REMARK    3  A    between atoms: O_3  and  C_9 
REMARK    4  A    between atoms: O_4  and  C_10 
REMARK    5  A    between atoms: O_6  and  C_12 
REMARK    6  A    between atoms: C_7  and  C_8 
REMARK    7  A    between atoms: C_7  and  C_9 
REMARK    8  A    between atoms: C_8  and  C_10 
REMARK    9  A    between atoms: C_9  and  C_11 
REMARK   10  A    between atoms: C_11  and  C_12 
ROOT
HETATM    1  C   UNK N   1      29.549  11.338 124.155  0.00  0.00     0.185 C 
ENDROOT
BRANCH   1   2
HETATM    2  O   UNK N   1      30.927  11.572 123.999  0.00  0.00    -0.390 OA
HETATM    3  H   UNK N   1      31.330  10.736 123.650  0.00  0.00     0.210 HD
ENDBRANCH   1   2
BRANCH   1   4
HETATM    4  C   UNK N   1      28.780  11.816 122.892  0.00  0.00     0.173 C 
BRANCH   4   5
HETATM    5  O   UNK N   1      27.674  10.983 122.642  0.00  0.00    -0.391 OA
HETATM    6  H   UNK N   1      27.783  10.165 123.197  0.00  0.00     0.210 HD
ENDBRANCH   4   5
BRANCH   4   7
HETATM    7  C   UNK N   1      29.685  11.876 121.646  0.00  0.00     0.198 C 
BRANCH   7   8
HETATM    8  O   UNK N   1      30.113  10.586 121.309  0.00  0.00    -0.398 OA
HETATM    9  H   UNK N   1      29.307  10.007 121.367  0.00  0.00     0.209 HD
ENDBRANCH   7   8
ENDBRANCH   4   7
ENDBRANCH   1   4
BRANCH   1  10
HETATM   10  C   UNK N   1      29.058  12.053 125.444  0.00  0.00     0.221 C 
BRANCH  10  11
HETATM   11  O   UNK N   1      27.801  11.557 125.844  0.00  0.00    -0.385 OA
HETATM   12  H   UNK N   1      27.108  11.970 125.264  0.00  0.00     0.210 HD
ENDBRANCH  10  11
BRANCH  10  13
HETATM   13  C   UNK N   1      29.011  13.566 125.289  0.00  0.00     0.181 C 
HETATM   14  O   UNK N   1      29.966  14.159 124.812  0.00  0.00    -0.293 OA
BRANCH  13  15
HETATM   15  C   UNK N   1      27.778  14.339 125.693  0.00  0.00     0.245 C 
BRANCH  15  16
HETATM   16  O   UNK N   1      27.515  14.203 127.065  0.00  0.00    -0.393 OA
HETATM   17  H   UNK N   1      26.689  13.657 127.143  0.00  0.00     0.209 HD
ENDBRANCH  15  16
ENDBRANCH  13  15
ENDBRANCH  10  13
ENDBRANCH   1  10
TORSDOF 10
ENDMDL
