MODEL 1
REMARK VINA RESULT:      -5.6      0.000      0.000
REMARK  10 active torsions:
REMARK  status: ('A' for Active; 'I' for Inactive)
REMARK    1  A    between atoms: O_1  and  C_7 
REMARK    2  A    between atoms: O_2  and  C_8 
REMARK    3  A    between atoms: O_3  and  C_9 
REMARK    4  A    between atoms: O_4  and  C_10 
REMARK    5  A    between atoms: O_6  and  C_12 
REMARK    6  A    between atoms: C_7  and  C_8 
REMARK    7  A    between atoms: C_7  and  C_9 
REMARK    8  A    between atoms: C_8  and  C_10 
REMARK    9  A    between atoms: C_9  and  C_11 
REMARK   10  A    between atoms: C_11  and  C_12 
ROOT
HETATM    1  C   UNK N   1      15.697   2.029 115.414  0.00  0.00     0.185 C 
ENDROOT
BRANCH   1   2
HETATM    2  O   UNK N   1      14.558   2.064 114.588  0.00  0.00    -0.390 OA
HETATM    3  H   UNK N   1      14.533   1.215 114.075  0.00  0.00     0.210 HD
ENDBRANCH   1   2
BRANCH   1   4
HETATM    4  C   UNK N   1      15.602   3.158 116.483  0.00  0.00     0.173 C 
BRANCH   4   5
HETATM    5  O   UNK N   1      16.381   4.262 116.089  0.00  0.00    -0.391 OA
HETATM    6  H   UNK N   1      16.640   4.758 116.911  0.00  0.00     0.210 HD
ENDBRANCH   4   5
BRANCH   4   7
HETATM    7  C   UNK N   1      14.161   3.625 116.763  0.00  0.00     0.198 C 
BRANCH   7   8
HETATM    8  O   UNK N   1      13.777   4.557 115.789  0.00  0.00    -0.398 OA
HETATM    9  H   UNK N   1      14.179   4.246 114.937  0.00  0.00     0.209 HD
ENDBRANCH   7   8
ENDBRANCH   4   7
ENDBRANCH   1   4
BRANCH   1  10
HETATM   10  C   UNK N   1      16.960   2.143 114.516  0.00  0.00     0.221 C 
BRANCH  10  11
HETATM   11  O   UNK N   1      16.649   2.782 113.298  0.00  0.00    -0.385 OA
HETATM   12  H   UNK N   1      17.233   3.580 113.211  0.00  0.00     0.210 HD
ENDBRANCH  10  11
BRANCH  10  13
HETATM   13  C   UNK N   1      17.630   0.803 114.269  0.00  0.00     0.181 C 
HETATM   14  O   UNK N   1      17.161   0.027 113.450  0.00  0.00    -0.293 OA
BRANCH  13  15
HETATM   15  C   UNK N   1      18.901   0.440 115.002  0.00  0.00     0.245 C 
BRANCH  15  16
HETATM   16  O   UNK N   1      19.963   0.236 114.110  0.00  0.00    -0.393 OA
HETATM   17  H   UNK N   1      19.681   0.622 113.241  0.00  0.00     0.209 HD
ENDBRANCH  15  16
ENDBRANCH  13  15
ENDBRANCH  10  13
ENDBRANCH   1  10
TORSDOF 10
ENDMDL
MODEL 2
REMARK VINA RESULT:      -5.2      1.619      2.302
REMARK  10 active torsions:
REMARK  status: ('A' for Active; 'I' for Inactive)
REMARK    1  A    between atoms: O_1  and  C_7 
REMARK    2  A    between atoms: O_2  and  C_8 
REMARK    3  A    between atoms: O_3  and  C_9 
REMARK    4  A    between atoms: O_4  and  C_10 
REMARK    5  A    between atoms: O_6  and  C_12 
REMARK    6  A    between atoms: C_7  and  C_8 
REMARK    7  A    between atoms: C_7  and  C_9 
REMARK    8  A    between atoms: C_8  and  C_10 
REMARK    9  A    between atoms: C_9  and  C_11 
REMARK   10  A    between atoms: C_11  and  C_12 
ROOT
HETATM    1  C   UNK N   1      14.769   2.039 116.423  0.00  0.00     0.185 C 
ENDROOT
BRANCH   1   2
HETATM    2  O   UNK N   1      13.995   1.468 115.395  0.00  0.00    -0.390 OA
HETATM    3  H   UNK N   1      13.747   2.196 114.767  0.00  0.00     0.210 HD
ENDBRANCH   1   2
BRANCH   1   4
HETATM    4  C   UNK N   1      14.364   3.530 116.616  0.00  0.00     0.173 C 
BRANCH   4   5
HETATM    5  O   UNK N   1      14.230   4.159 115.363  0.00  0.00    -0.391 OA
HETATM    6  H   UNK N   1      14.095   5.130 115.526  0.00  0.00     0.210 HD
ENDBRANCH   4   5
BRANCH   4   7
HETATM    7  C   UNK N   1      13.067   3.721 117.423  0.00  0.00     0.198 C 
BRANCH   7   8
HETATM    8  O   UNK N   1      12.247   4.652 116.771  0.00  0.00    -0.398 OA
HETATM    9  H   UNK N   1      11.317   4.438 117.044  0.00  0.00     0.209 HD
ENDBRANCH   7   8
ENDBRANCH   4   7
ENDBRANCH   1   4
BRANCH   1  10
HETATM   10  C   UNK N   1      16.271   1.854 116.069  0.00  0.00     0.221 C 
BRANCH  10  11
HETATM   11  O   UNK N   1      16.956   3.083 116.148  0.00  0.00    -0.385 OA
HETATM   12  H   UNK N   1      17.455   3.213 115.300  0.00  0.00     0.210 HD
ENDBRANCH  10  11
BRANCH  10  13
HETATM   13  C   UNK N   1      16.480   1.204 114.713  0.00  0.00     0.181 C 
HETATM   14  O   UNK N   1      16.326  -0.001 114.583  0.00  0.00    -0.293 OA
BRANCH  13  15
HETATM   15  C   UNK N   1      16.836   2.048 113.511  0.00  0.00     0.245 C 
BRANCH  15  16
HETATM   16  O   UNK N   1      16.047   3.205 113.447  0.00  0.00    -0.393 OA
HETATM   17  H   UNK N   1      16.426   3.767 112.722  0.00  0.00     0.209 HD
ENDBRANCH  15  16
ENDBRANCH  13  15
ENDBRANCH  10  13
ENDBRANCH   1  10
TORSDOF 10
ENDMDL
MODEL 3
REMARK VINA RESULT:      -5.1      1.532      4.670
REMARK  10 active torsions:
REMARK  status: ('A' for Active; 'I' for Inactive)
REMARK    1  A    between atoms: O_1  and  C_7 
REMARK    2  A    between atoms: O_2  and  C_8 
REMARK    3  A    between atoms: O_3  and  C_9 
REMARK    4  A    between atoms: O_4  and  C_10 
REMARK    5  A    between atoms: O_6  and  C_12 
REMARK    6  A    between atoms: C_7  and  C_8 
REMARK    7  A    between atoms: C_7  and  C_9 
REMARK    8  A    between atoms: C_8  and  C_10 
REMARK    9  A    between atoms: C_9  and  C_11 
REMARK   10  A    between atoms: C_11  and  C_12 
ROOT
HETATM    1  C   UNK N   1      17.259   1.180 115.957  0.00  0.00     0.185 C 
ENDROOT
BRANCH   1   2
HETATM    2  O   UNK N   1      18.095   2.293 116.166  0.00  0.00    -0.390 OA
HETATM    3  H   UNK N   1      18.989   2.071 115.796  0.00  0.00     0.210 HD
ENDBRANCH   1   2
BRANCH   1   4
HETATM    4  C   UNK N   1      18.121  -0.116 115.893  0.00  0.00     0.173 C 
BRANCH   4   5
HETATM    5  O   UNK N   1      17.628  -0.973 114.891  0.00  0.00    -0.391 OA
HETATM    6  H   UNK N   1      16.789  -0.575 114.538  0.00  0.00     0.210 HD
ENDBRANCH   4   5
BRANCH   4   7
HETATM    7  C   UNK N   1      19.618   0.148 115.648  0.00  0.00     0.198 C 
BRANCH   7   8
HETATM    8  O   UNK N   1      19.832   0.377 114.282  0.00  0.00    -0.398 OA
HETATM    9  H   UNK N   1      19.980   1.353 114.186  0.00  0.00     0.209 HD
ENDBRANCH   7   8
ENDBRANCH   4   7
ENDBRANCH   1   4
BRANCH   1  10
HETATM   10  C   UNK N   1      16.427   1.424 114.668  0.00  0.00     0.221 C 
BRANCH  10  11
HETATM   11  O   UNK N   1      17.272   1.575 113.550  0.00  0.00    -0.385 OA
HETATM   12  H   UNK N   1      16.859   2.238 112.938  0.00  0.00     0.210 HD
ENDBRANCH  10  11
BRANCH  10  13
HETATM   13  C   UNK N   1      15.480   2.605 114.793  0.00  0.00     0.181 C 
HETATM   14  O   UNK N   1      15.275   3.329 113.830  0.00  0.00    -0.293 OA
BRANCH  13  15
HETATM   15  C   UNK N   1      14.755   2.865 116.094  0.00  0.00     0.245 C 
BRANCH  15  16
HETATM   16  O   UNK N   1      13.764   1.901 116.327  0.00  0.00    -0.393 OA
HETATM   17  H   UNK N   1      12.983   2.384 116.705  0.00  0.00     0.209 HD
ENDBRANCH  15  16
ENDBRANCH  13  15
ENDBRANCH  10  13
ENDBRANCH   1  10
TORSDOF 10
ENDMDL
MODEL 4
REMARK VINA RESULT:      -5.0     15.170     16.141
REMARK  10 active torsions:
REMARK  status: ('A' for Active; 'I' for Inactive)
REMARK    1  A    between atoms: O_1  and  C_7 
REMARK    2  A    between atoms: O_2  and  C_8 
REMARK    3  A    between atoms: O_3  and  C_9 
REMARK    4  A    between atoms: O_4  and  C_10 
REMARK    5  A    between atoms: O_6  and  C_12 
REMARK    6  A    between atoms: C_7  and  C_8 
REMARK    7  A    between atoms: C_7  and  C_9 
REMARK    8  A    between atoms: C_8  and  C_10 
REMARK    9  A    between atoms: C_9  and  C_11 
REMARK   10  A    between atoms: C_11  and  C_12 
ROOT
HETATM    1  C   UNK N   1      30.167   8.302 119.947  0.00  0.00     0.185 C 
ENDROOT
BRANCH   1   2
HETATM    2  O   UNK N   1      31.413   8.922 120.160  0.00  0.00    -0.390 OA
HETATM    3  H   UNK N   1      31.931   8.349 120.783  0.00  0.00     0.210 HD
ENDBRANCH   1   2
BRANCH   1   4
HETATM    4  C   UNK N   1      29.033   9.192 120.537  0.00  0.00     0.173 C 
BRANCH   4   5
HETATM    5  O   UNK N   1      28.126   8.398 121.264  0.00  0.00    -0.391 OA
HETATM    6  H   UNK N   1      28.535   7.499 121.377  0.00  0.00     0.210 HD
ENDBRANCH   4   5
BRANCH   4   7
HETATM    7  C   UNK N   1      29.546  10.332 121.436  0.00  0.00     0.198 C 
BRANCH   7   8
HETATM    8  O   UNK N   1      30.282   9.791 122.499  0.00  0.00    -0.398 OA
HETATM    9  H   UNK N   1      30.935   9.165 122.090  0.00  0.00     0.209 HD
ENDBRANCH   7   8
ENDBRANCH   4   7
ENDBRANCH   1   4
BRANCH   1  10
HETATM   10  C   UNK N   1      30.212   6.879 120.568  0.00  0.00     0.221 C 
BRANCH  10  11
HETATM   11  O   UNK N   1      30.628   6.935 121.914  0.00  0.00    -0.385 OA
HETATM   12  H   UNK N   1      29.829   7.113 122.475  0.00  0.00     0.210 HD
ENDBRANCH  10  11
BRANCH  10  13
HETATM   13  C   UNK N   1      31.079   5.917 119.774  0.00  0.00     0.181 C 
HETATM   14  O   UNK N   1      31.888   6.349 118.966  0.00  0.00    -0.293 OA
BRANCH  13  15
HETATM   15  C   UNK N   1      30.977   4.428 120.008  0.00  0.00     0.245 C 
BRANCH  15  16
HETATM   16  O   UNK N   1      31.477   4.075 121.270  0.00  0.00    -0.393 OA
HETATM   17  H   UNK N   1      32.355   4.529 121.364  0.00  0.00     0.209 HD
ENDBRANCH  15  16
ENDBRANCH  13  15
ENDBRANCH  10  13
ENDBRANCH   1  10
TORSDOF 10
ENDMDL
MODEL 5
REMARK VINA RESULT:      -5.0     11.362     12.754
REMARK  10 active torsions:
REMARK  status: ('A' for Active; 'I' for Inactive)
REMARK    1  A    between atoms: O_1  and  C_7 
REMARK    2  A    between atoms: O_2  and  C_8 
REMARK    3  A    between atoms: O_3  and  C_9 
REMARK    4  A    between atoms: O_4  and  C_10 
REMARK    5  A    between atoms: O_6  and  C_12 
REMARK    6  A    between atoms: C_7  and  C_8 
REMARK    7  A    between atoms: C_7  and  C_9 
REMARK    8  A    between atoms: C_8  and  C_10 
REMARK    9  A    between atoms: C_9  and  C_11 
REMARK   10  A    between atoms: C_11  and  C_12 
ROOT
HETATM    1  C   UNK N   1       9.294  -2.133 122.792  0.00  0.00     0.185 C 
ENDROOT
BRANCH   1   2
HETATM    2  O   UNK N   1      10.516  -2.823 122.900  0.00  0.00    -0.390 OA
HETATM    3  H   UNK N   1      10.332  -3.692 123.342  0.00  0.00     0.210 HD
ENDBRANCH   1   2
BRANCH   1   4
HETATM    4  C   UNK N   1       9.269  -0.953 123.809  0.00  0.00     0.173 C 
BRANCH   4   5
HETATM    5  O   UNK N   1       9.240  -1.452 125.125  0.00  0.00    -0.391 OA
HETATM    6  H   UNK N   1      10.181  -1.566 125.426  0.00  0.00     0.210 HD
ENDBRANCH   4   5
BRANCH   4   7
HETATM    7  C   UNK N   1      10.454   0.019 123.659  0.00  0.00     0.198 C 
BRANCH   7   8
HETATM    8  O   UNK N   1      11.404  -0.249 124.653  0.00  0.00    -0.398 OA
HETATM    9  H   UNK N   1      12.227  -0.535 124.178  0.00  0.00     0.209 HD
ENDBRANCH   7   8
ENDBRANCH   4   7
ENDBRANCH   1   4
BRANCH   1  10
HETATM   10  C   UNK N   1       8.135  -3.146 123.003  0.00  0.00     0.221 C 
BRANCH  10  11
HETATM   11  O   UNK N   1       7.192  -2.640 123.921  0.00  0.00    -0.385 OA
HETATM   12  H   UNK N   1       7.639  -1.943 124.469  0.00  0.00     0.210 HD
ENDBRANCH  10  11
BRANCH  10  13
HETATM   13  C   UNK N   1       8.624  -4.519 123.430  0.00  0.00     0.181 C 
HETATM   14  O   UNK N   1       9.039  -5.307 122.593  0.00  0.00    -0.293 OA
BRANCH  13  15
HETATM   15  C   UNK N   1       8.640  -4.901 124.892  0.00  0.00     0.245 C 
BRANCH  15  16
HETATM   16  O   UNK N   1       9.542  -4.109 125.616  0.00  0.00    -0.393 OA
HETATM   17  H   UNK N   1      10.452  -4.375 125.322  0.00  0.00     0.209 HD
ENDBRANCH  15  16
ENDBRANCH  13  15
ENDBRANCH  10  13
ENDBRANCH   1  10
TORSDOF 10
ENDMDL
MODEL 6
REMARK VINA RESULT:      -5.0     14.987     16.371
REMARK  10 active torsions:
REMARK  status: ('A' for Active; 'I' for Inactive)
REMARK    1  A    between atoms: O_1  and  C_7 
REMARK    2  A    between atoms: O_2  and  C_8 
REMARK    3  A    between atoms: O_3  and  C_9 
REMARK    4  A    between atoms: O_4  and  C_10 
REMARK    5  A    between atoms: O_6  and  C_12 
REMARK    6  A    between atoms: C_7  and  C_8 
REMARK    7  A    between atoms: C_7  and  C_9 
REMARK    8  A    between atoms: C_8  and  C_10 
REMARK    9  A    between atoms: C_9  and  C_11 
REMARK   10  A    between atoms: C_11  and  C_12 
ROOT
HETATM    1  C   UNK N   1      30.281   6.777 119.501  0.00  0.00     0.185 C 
ENDROOT
BRANCH   1   2
HETATM    2  O   UNK N   1      28.973   6.737 120.021  0.00  0.00    -0.390 OA
HETATM    3  H   UNK N   1      28.995   6.188 120.847  0.00  0.00     0.210 HD
ENDBRANCH   1   2
BRANCH   1   4
HETATM    4  C   UNK N   1      31.239   5.983 120.438  0.00  0.00     0.173 C 
BRANCH   4   5
HETATM    5  O   UNK N   1      30.942   6.267 121.784  0.00  0.00    -0.391 OA
HETATM    6  H   UNK N   1      31.325   7.159 121.997  0.00  0.00     0.210 HD
ENDBRANCH   4   5
BRANCH   4   7
HETATM    7  C   UNK N   1      31.199   4.459 120.217  0.00  0.00     0.198 C 
BRANCH   7   8
HETATM    8  O   UNK N   1      31.688   3.811 121.360  0.00  0.00    -0.398 OA
HETATM    9  H   UNK N   1      30.953   3.225 121.678  0.00  0.00     0.209 HD
ENDBRANCH   7   8
ENDBRANCH   4   7
ENDBRANCH   1   4
BRANCH   1  10
HETATM   10  C   UNK N   1      30.695   8.264 119.321  0.00  0.00     0.221 C 
BRANCH  10  11
HETATM   11  O   UNK N   1      31.879   8.541 120.035  0.00  0.00    -0.385 OA
HETATM   12  H   UNK N   1      32.497   7.774 119.915  0.00  0.00     0.210 HD
ENDBRANCH  10  11
BRANCH  10  13
HETATM   13  C   UNK N   1      29.591   9.232 119.707  0.00  0.00     0.181 C 
HETATM   14  O   UNK N   1      28.653   9.423 118.947  0.00  0.00    -0.293 OA
BRANCH  13  15
HETATM   15  C   UNK N   1      29.624   9.931 121.046  0.00  0.00     0.245 C 
BRANCH  15  16
HETATM   16  O   UNK N   1      29.788   9.015 122.095  0.00  0.00    -0.393 OA
HETATM   17  H   UNK N   1      30.759   8.993 122.303  0.00  0.00     0.209 HD
ENDBRANCH  15  16
ENDBRANCH  13  15
ENDBRANCH  10  13
ENDBRANCH   1  10
TORSDOF 10
ENDMDL
MODEL 7
REMARK VINA RESULT:      -5.0     20.628     21.501
REMARK  10 active torsions:
REMARK  status: ('A' for Active; 'I' for Inactive)
REMARK    1  A    between atoms: O_1  and  C_7 
REMARK    2  A    between atoms: O_2  and  C_8 
REMARK    3  A    between atoms: O_3  and  C_9 
REMARK    4  A    between atoms: O_4  and  C_10 
REMARK    5  A    between atoms: O_6  and  C_12 
REMARK    6  A    between atoms: C_7  and  C_8 
REMARK    7  A    between atoms: C_7  and  C_9 
REMARK    8  A    between atoms: C_8  and  C_10 
REMARK    9  A    between atoms: C_9  and  C_11 
REMARK   10  A    between atoms: C_11  and  C_12 
ROOT
HETATM    1  C   UNK N   1      36.845  -5.652 117.235  0.00  0.00     0.185 C 
ENDROOT
BRANCH   1   2
HETATM    2  O   UNK N   1      37.416  -4.674 118.072  0.00  0.00    -0.390 OA
HETATM    3  H   UNK N   1      38.391  -4.657 117.892  0.00  0.00     0.210 HD
ENDBRANCH   1   2
BRANCH   1   4
HETATM    4  C   UNK N   1      36.940  -5.189 115.751  0.00  0.00     0.173 C 
BRANCH   4   5
HETATM    5  O   UNK N   1      35.698  -4.679 115.325  0.00  0.00    -0.391 OA
HETATM    6  H   UNK N   1      35.830  -3.723 115.087  0.00  0.00     0.210 HD
ENDBRANCH   4   5
BRANCH   4   7
HETATM    7  C   UNK N   1      38.036  -4.137 115.499  0.00  0.00     0.198 C 
BRANCH   7   8
HETATM    8  O   UNK N   1      37.473  -2.855 115.567  0.00  0.00    -0.398 OA
HETATM    9  H   UNK N   1      37.188  -2.630 114.644  0.00  0.00     0.209 HD
ENDBRANCH   7   8
ENDBRANCH   4   7
ENDBRANCH   1   4
BRANCH   1  10
HETATM   10  C   UNK N   1      35.386  -5.911 117.703  0.00  0.00     0.221 C 
BRANCH  10  11
HETATM   11  O   UNK N   1      35.302  -5.880 119.110  0.00  0.00    -0.385 OA
HETATM   12  H   UNK N   1      35.550  -6.778 119.452  0.00  0.00     0.210 HD
ENDBRANCH  10  11
BRANCH  10  13
HETATM   13  C   UNK N   1      34.813  -7.205 117.153  0.00  0.00     0.181 C 
HETATM   14  O   UNK N   1      34.345  -7.235 116.025  0.00  0.00    -0.293 OA
BRANCH  13  15
HETATM   15  C   UNK N   1      34.856  -8.469 117.981  0.00  0.00     0.245 C 
BRANCH  15  16
HETATM   16  O   UNK N   1      33.926  -8.424 119.029  0.00  0.00    -0.393 OA
HETATM   17  H   UNK N   1      33.817  -7.467 119.271  0.00  0.00     0.209 HD
ENDBRANCH  15  16
ENDBRANCH  13  15
ENDBRANCH  10  13
ENDBRANCH   1  10
TORSDOF 10
ENDMDL
MODEL 8
REMARK VINA RESULT:      -5.0      1.441      4.810
REMARK  10 active torsions:
REMARK  status: ('A' for Active; 'I' for Inactive)
REMARK    1  A    between atoms: O_1  and  C_7 
REMARK    2  A    between atoms: O_2  and  C_8 
REMARK    3  A    between atoms: O_3  and  C_9 
REMARK    4  A    between atoms: O_4  and  C_10 
REMARK    5  A    between atoms: O_6  and  C_12 
REMARK    6  A    between atoms: C_7  and  C_8 
REMARK    7  A    between atoms: C_7  and  C_9 
REMARK    8  A    between atoms: C_8  and  C_10 
REMARK    9  A    between atoms: C_9  and  C_11 
REMARK   10  A    between atoms: C_11  and  C_12 
ROOT
HETATM    1  C   UNK N   1      16.812   1.409 114.899  0.00  0.00     0.185 C 
ENDROOT
BRANCH   1   2
HETATM    2  O   UNK N   1      16.794   1.874 113.570  0.00  0.00    -0.390 OA
HETATM    3  H   UNK N   1      16.123   2.603 113.516  0.00  0.00     0.210 HD
ENDBRANCH   1   2
BRANCH   1   4
HETATM    4  C   UNK N   1      17.133  -0.115 114.916  0.00  0.00     0.173 C 
BRANCH   4   5
HETATM    5  O   UNK N   1      18.261  -0.378 114.115  0.00  0.00    -0.391 OA
HETATM    6  H   UNK N   1      17.952  -0.447 113.172  0.00  0.00     0.210 HD
ENDBRANCH   4   5
BRANCH   4   7
HETATM    7  C   UNK N   1      17.368  -0.683 116.328  0.00  0.00     0.198 C 
BRANCH   7   8
HETATM    8  O   UNK N   1      16.402  -1.661 116.601  0.00  0.00    -0.398 OA
HETATM    9  H   UNK N   1      16.878  -2.532 116.574  0.00  0.00     0.209 HD
ENDBRANCH   7   8
ENDBRANCH   4   7
ENDBRANCH   1   4
BRANCH   1  10
HETATM   10  C   UNK N   1      15.448   1.753 115.559  0.00  0.00     0.221 C 
BRANCH  10  11
HETATM   11  O   UNK N   1      14.382   1.455 114.685  0.00  0.00    -0.385 OA
HETATM   12  H   UNK N   1      13.738   2.210 114.716  0.00  0.00     0.210 HD
ENDBRANCH  10  11
BRANCH  10  13
HETATM   13  C   UNK N   1      15.370   3.192 116.037  0.00  0.00     0.181 C 
HETATM   14  O   UNK N   1      16.286   3.965 115.797  0.00  0.00    -0.293 OA
BRANCH  13  15
HETATM   15  C   UNK N   1      14.146   3.686 116.771  0.00  0.00     0.245 C 
BRANCH  15  16
HETATM   16  O   UNK N   1      13.601   4.820 116.150  0.00  0.00    -0.393 OA
HETATM   17  H   UNK N   1      13.875   5.602 116.696  0.00  0.00     0.209 HD
ENDBRANCH  15  16
ENDBRANCH  13  15
ENDBRANCH  10  13
ENDBRANCH   1  10
TORSDOF 10
ENDMDL
MODEL 9
REMARK VINA RESULT:      -4.9     29.539     31.939
REMARK  10 active torsions:
REMARK  status: ('A' for Active; 'I' for Inactive)
REMARK    1  A    between atoms: O_1  and  C_7 
REMARK    2  A    between atoms: O_2  and  C_8 
REMARK    3  A    between atoms: O_3  and  C_9 
REMARK    4  A    between atoms: O_4  and  C_10 
REMARK    5  A    between atoms: O_6  and  C_12 
REMARK    6  A    between atoms: C_7  and  C_8 
REMARK    7  A    between atoms: C_7  and  C_9 
REMARK    8  A    between atoms: C_8  and  C_10 
REMARK    9  A    between atoms: C_9  and  C_11 
REMARK   10  A    between atoms: C_11  and  C_12 
ROOT
HETATM    1  C   UNK N   1      37.566 -11.329 133.812  0.00  0.00     0.185 C 
ENDROOT
BRANCH   1   2
HETATM    2  O   UNK N   1      36.816 -10.146 133.947  0.00  0.00    -0.390 OA
HETATM    3  H   UNK N   1      37.455  -9.398 134.079  0.00  0.00     0.210 HD
ENDBRANCH   1   2
BRANCH   1   4
HETATM    4  C   UNK N   1      36.609 -12.557 133.808  0.00  0.00     0.173 C 
BRANCH   4   5
HETATM    5  O   UNK N   1      35.806 -12.547 134.964  0.00  0.00    -0.391 OA
HETATM    6  H   UNK N   1      34.987 -12.023 134.759  0.00  0.00     0.210 HD
ENDBRANCH   4   5
BRANCH   4   7
HETATM    7  C   UNK N   1      35.706 -12.635 132.562  0.00  0.00     0.198 C 
BRANCH   7   8
HETATM    8  O   UNK N   1      35.064 -11.403 132.376  0.00  0.00    -0.398 OA
HETATM    9  H   UNK N   1      34.889 -11.328 131.402  0.00  0.00     0.209 HD
ENDBRANCH   7   8
ENDBRANCH   4   7
ENDBRANCH   1   4
BRANCH   1  10
HETATM   10  C   UNK N   1      38.618 -11.379 134.954  0.00  0.00     0.221 C 
BRANCH  10  11
HETATM   11  O   UNK N   1      38.754 -12.691 135.450  0.00  0.00    -0.385 OA
HETATM   12  H   UNK N   1      39.148 -13.252 134.732  0.00  0.00     0.210 HD
ENDBRANCH  10  11
BRANCH  10  13
HETATM   13  C   UNK N   1      38.313 -10.404 136.078  0.00  0.00     0.181 C 
HETATM   14  O   UNK N   1      37.268 -10.502 136.704  0.00  0.00    -0.293 OA
BRANCH  13  15
HETATM   15  C   UNK N   1      39.316  -9.338 136.456  0.00  0.00     0.245 C 
BRANCH  15  16
HETATM   16  O   UNK N   1      38.778  -8.053 136.296  0.00  0.00    -0.393 OA
HETATM   17  H   UNK N   1      38.157  -8.100 135.523  0.00  0.00     0.209 HD
ENDBRANCH  15  16
ENDBRANCH  13  15
ENDBRANCH  10  13
ENDBRANCH   1  10
TORSDOF 10
ENDMDL
