REMARK  10 active torsions:
REMARK  status: ('A' for Active; 'I' for Inactive)
REMARK    1  A    between atoms: O_1  and  C_12 
REMARK    2  A    between atoms: O_2  and  C_13 
REMARK    3  A    between atoms: O_3  and  C_18 
REMARK    4  A    between atoms: O_4  and  C_19 
REMARK    5  A    between atoms: C_7  and  C_16 
REMARK    6  A    between atoms: C_8  and  C_17 
REMARK    7  A    between atoms: C_9  and  C_20 
REMARK    8  A    between atoms: C_9  and  C_21 
REMARK    9  A    between atoms: C_20  and  C_24 
REMARK   10  A    between atoms: C_21  and  C_25 
ROOT
HETATM    1  C   UNK N   1       0.013   2.951   0.612  0.00  0.00     0.165 C 
ENDROOT
BRANCH   1   2
HETATM    2  C   UNK N   1       1.460   2.861   0.221  0.00  0.00     0.156 C 
HETATM    3  O   UNK N   1       2.110   3.893   0.133  0.00  0.00    -0.293 OA
BRANCH   2   4
HETATM    4  C   UNK N   1       2.115   1.554  -0.013  0.00  0.00     0.051 C 
HETATM    5  C   UNK N   1       3.455   1.450   0.015  0.00  0.00     0.015 C 
BRANCH   5   6
HETATM    6  C   UNK N   1       4.187   0.180  -0.197  0.00  0.00    -0.033 A 
HETATM    7  C   UNK N   1       5.478   0.067   0.335  0.00  0.00     0.051 A 
HETATM    8  C   UNK N   1       6.220  -1.119   0.185  0.00  0.00     0.102 A 
HETATM    9  C   UNK N   1       5.665  -2.189  -0.544  0.00  0.00     0.099 A 
HETATM   10  C   UNK N   1       4.381  -2.070  -1.090  0.00  0.00     0.040 A 
HETATM   11  C   UNK N   1       3.638  -0.902  -0.909  0.00  0.00     0.014 A 
BRANCH   8  12
HETATM   12  O   UNK N   1       7.456  -1.262   0.740  0.00  0.00    -0.353 OA
HETATM   13  C   UNK N   1       8.067  -0.333   1.559  0.00  0.00     0.210 C 
ENDBRANCH   8  12
BRANCH   9  14
HETATM   14  O   UNK N   1       6.349  -3.339  -0.724  0.00  0.00    -0.358 OA
HETATM   15  H   UNK N   1       7.238  -3.473  -0.367  0.00  0.00     0.218 HD
ENDBRANCH   9  14
ENDBRANCH   5   6
ENDBRANCH   2   4
ENDBRANCH   1   2
BRANCH   1  16
HETATM   16  C   UNK N   1      -0.929   2.228  -0.308  0.00  0.00     0.156 C 
HETATM   17  O   UNK N   1      -0.907   2.453  -1.509  0.00  0.00    -0.293 OA
BRANCH  16  18
HETATM   18  C   UNK N   1      -1.967   1.346   0.285  0.00  0.00     0.051 C 
HETATM   19  C   UNK N   1      -2.946   0.799  -0.457  0.00  0.00     0.015 C 
BRANCH  19  20
HETATM   20  C   UNK N   1      -4.089   0.028   0.115  0.00  0.00    -0.033 A 
HETATM   21  C   UNK N   1      -5.154  -0.290  -0.740  0.00  0.00     0.051 A 
HETATM   22  C   UNK N   1      -6.299  -0.959  -0.258  0.00  0.00     0.102 A 
HETATM   23  C   UNK N   1      -6.360  -1.324   1.094  0.00  0.00     0.099 A 
HETATM   24  C   UNK N   1      -5.295  -1.023   1.952  0.00  0.00     0.040 A 
HETATM   25  C   UNK N   1      -4.169  -0.349   1.473  0.00  0.00     0.014 A 
BRANCH  22  26
HETATM   26  O   UNK N   1      -7.355  -1.246  -1.065  0.00  0.00    -0.353 OA
HETATM   27  C   UNK N   1      -7.451  -0.895  -2.397  0.00  0.00     0.210 C 
ENDBRANCH  22  26
BRANCH  23  28
HETATM   28  O   UNK N   1      -7.456  -1.959   1.565  0.00  0.00    -0.358 OA
HETATM   29  H   UNK N   1      -7.535  -2.216   2.495  0.00  0.00     0.218 HD
ENDBRANCH  23  28
ENDBRANCH  19  20
ENDBRANCH  16  18
ENDBRANCH   1  16
TORSDOF 10
