REMARK  6 active torsions:
REMARK  status: ('A' for Active; 'I' for Inactive)
REMARK    1  A    between atoms: O_2  and  C_12 
REMARK    2  A    between atoms: O_4  and  C_18 
REMARK    3  A    between atoms: O_5  and  C_19 
REMARK    4  A    between atoms: O_6  and  C_20 
REMARK    5  A    between atoms: O_7  and  C_22 
REMARK    6  A    between atoms: C_8  and  C_10 
ROOT
HETATM    1  O   UNL     1      -0.754  -0.743   0.001  1.00  0.00    -0.306 OA
HETATM    2  O   UNL     1      -2.354   3.005  -0.017  1.00  0.00    -0.284 OA
HETATM    3  C   UNL     1       0.050   0.386   0.008  1.00  0.00     0.123 A 
HETATM    4  C   UNL     1      -2.723   0.675  -0.001  1.00  0.00     0.051 A 
HETATM    5  C   UNL     1      -2.115  -0.578   0.003  1.00  0.00     0.093 A 
HETATM    6  C   UNL     1      -0.411   1.650  -0.004  1.00  0.00     0.152 A 
HETATM    7  C   UNL     1      -1.876   1.878  -0.008  1.00  0.00     0.220 A 
HETATM    8  C   UNL     1      -4.116   0.783   0.000  1.00  0.00     0.021 A 
HETATM    9  C   UNL     1      -2.896  -1.733   0.007  1.00  0.00     0.074 A 
HETATM   10  C   UNL     1      -4.287  -1.630   0.008  1.00  0.00     0.068 A 
HETATM   11  C   UNL     1      -4.896  -0.374   0.005  1.00  0.00     0.037 A 
ENDROOT
BRANCH   3  12
HETATM   12  C   UNL     1       1.489   0.068   0.005  1.00  0.00     0.006 A 
HETATM   13  C   UNL     1       2.175  -0.069   1.211  1.00  0.00     0.054 A 
HETATM   14  C   UNL     1       3.537  -0.372   1.210  1.00  0.00     0.102 A 
HETATM   15  C   UNL     1       4.212  -0.539   0.001  1.00  0.00     0.132 A 
HETATM   16  C   UNL     1       3.526  -0.403  -1.206  1.00  0.00     0.102 A 
HETATM   17  C   UNL     1       2.165  -0.099  -1.204  1.00  0.00     0.054 A 
BRANCH  14  18
HETATM   18  O   UNL     1       4.195  -0.502   2.395  1.00  0.00    -0.358 OA
HETATM   19  H   UNL     1       5.145  -0.354   2.259  1.00  0.00     0.218 HD
ENDBRANCH  14  18
BRANCH  15  20
HETATM   20  O   UNL     1       5.543  -0.837  -0.002  1.00  0.00    -0.356 OA
HETATM   21  H   UNL     1       5.787  -1.250   0.843  1.00  0.00     0.218 HD
ENDBRANCH  15  20
BRANCH  16  22
HETATM   22  O   UNL     1       4.174  -0.564  -2.394  1.00  0.00    -0.358 OA
HETATM   23  H   UNL     1       5.107  -0.770  -2.208  1.00  0.00     0.218 HD
ENDBRANCH  16  22
ENDBRANCH   3  12
BRANCH   6  24
HETATM   24  O   UNL     1       0.416   2.752  -0.031  1.00  0.00    -0.355 OA
HETATM   25  H   UNL     1       1.344   2.468  -0.030  1.00  0.00     0.218 HD
ENDBRANCH   6  24
BRANCH  10  26
HETATM   26  O   UNL     1      -5.053  -2.756   0.013  1.00  0.00    -0.361 OA
HETATM   27  H   UNL     1      -5.991  -2.499   0.013  1.00  0.00     0.217 HD
ENDBRANCH  10  26
TORSDOF 6
