REMARK  8 active torsions:
REMARK  status: ('A' for Active; 'I' for Inactive)
REMARK    1  A    between atoms: O_2  and  C_11 
REMARK    2  A    between atoms: O_3  and  C_12 
REMARK    3  A    between atoms: O_5  and  C_19 
REMARK    4  A    between atoms: O_6  and  C_21 
REMARK    5  A    between atoms: C_7  and  C_13 
REMARK    6  A    between atoms: C_10  and  C_15 
REMARK    7  A    between atoms: C_13  and  C_18 
REMARK    8  A    between atoms: C_15  and  C_20 
ROOT
HETATM    1  O   UNL     1      -1.848   0.957   0.350  1.00  0.00    -0.305 OA
HETATM    2  O   UNL     1      -1.363  -3.079  -0.118  1.00  0.00    -0.286 OA
HETATM    3  C   UNL     1       0.451   1.235   0.778  1.00  0.00     0.014 A 
HETATM    4  C   UNL     1      -0.610   0.377   0.481  1.00  0.00     0.102 A 
HETATM    5  C   UNL     1      -0.373  -0.989   0.335  1.00  0.00     0.083 A 
HETATM    6  C   UNL     1       1.973  -0.645   0.781  1.00  0.00     0.013 A 
HETATM    7  C   UNL     1       1.741   0.723   0.927  1.00  0.00     0.084 A 
HETATM    8  C   UNL     1       0.916  -1.506   0.484  1.00  0.00     0.092 A 
HETATM    9  C   UNL     1      -1.507  -1.873   0.023  1.00  0.00     0.203 A 
HETATM   10  C   UNL     1      -2.824  -1.233  -0.113  1.00  0.00     0.085 A 
HETATM   11  C   UNL     1      -2.918   0.148   0.058  1.00  0.00     0.126 A 
HETATM   12  C   UNL     1      -3.960  -1.991  -0.408  1.00  0.00     0.082 A 
HETATM   13  C   UNL     1      -4.159   0.776  -0.066  1.00  0.00     0.100 A 
HETATM   14  C   UNL     1      -5.197  -1.357  -0.532  1.00  0.00     0.040 A 
HETATM   15  C   UNL     1      -5.296   0.024  -0.361  1.00  0.00     0.042 A 
ENDROOT
BRANCH   3  16
HETATM   16  C   UNL     1       0.213   2.703   0.937  1.00  0.00     0.072 C 
BRANCH  16  17
HETATM   17  C   UNL     1       0.352   3.461  -0.359  1.00  0.00    -0.020 C 
HETATM   18  C   UNL     1       1.229   4.438  -0.660  1.00  0.00    -0.091 C 
HETATM   19  C   UNL     1       1.312   5.154  -1.978  1.00  0.00     0.042 C 
HETATM   20  C   UNL     1       2.228   4.907   0.365  1.00  0.00     0.042 C 
ENDBRANCH  16  17
ENDBRANCH   3  16
BRANCH   7  21
HETATM   21  O   UNL     1       2.777   1.563   1.217  1.00  0.00    -0.359 OA
HETATM   22  H   UNL     1       2.581   2.459   0.910  1.00  0.00     0.217 HD
ENDBRANCH   7  21
BRANCH   6  23
HETATM   23  C   UNL     1       3.358  -1.185   0.943  1.00  0.00     0.072 C 
BRANCH  23  24
HETATM   24  C   UNL     1       4.130  -1.211  -0.351  1.00  0.00    -0.020 C 
HETATM   25  C   UNL     1       5.081  -2.085  -0.733  1.00  0.00    -0.091 C 
HETATM   26  C   UNL     1       5.814  -2.053  -2.044  1.00  0.00     0.042 C 
HETATM   27  C   UNL     1       5.500  -3.203   0.185  1.00  0.00     0.042 C 
ENDBRANCH  23  24
ENDBRANCH   6  23
BRANCH   8  28
HETATM   28  O   UNL     1       1.181  -2.837   0.347  1.00  0.00    -0.359 OA
HETATM   29  H   UNL     1       2.086  -2.974   0.025  1.00  0.00     0.218 HD
ENDBRANCH   8  28
BRANCH  13  30
HETATM   30  O   UNL     1      -4.279   2.124   0.097  1.00  0.00    -0.358 OA
HETATM   31  H   UNL     1      -5.210   2.377  -0.026  1.00  0.00     0.218 HD
ENDBRANCH  13  30
BRANCH  12  32
HETATM   32  O   UNL     1      -3.921  -3.341  -0.585  1.00  0.00    -0.360 OA
HETATM   33  H   UNL     1      -3.016  -3.672  -0.475  1.00  0.00     0.217 HD
ENDBRANCH  12  32
TORSDOF 8
