REMARK  Name = 133124899
REMARK  18 active torsions:
REMARK  status: ('A' for Active; 'I' for Inactive)
REMARK    1  A    between atoms: O_1  and  C_20
REMARK    2  A    between atoms: O_1  and  C_26
REMARK    3  A    between atoms: O_3  and  C_23
REMARK    4  A    between atoms: O_3  and  C_25
REMARK    5  A    between atoms: O_6  and  C_21
REMARK    6  A    between atoms: O_7  and  C_22
REMARK    7  A    between atoms: O_8  and  C_27
REMARK    8  A    between atoms: O_9  and  C_28
REMARK    9  A    between atoms: O_10  and  C_29
REMARK   10  A    between atoms: O_11  and  C_31
REMARK   11  A    between atoms: O_12  and  C_32
REMARK   12  A    between atoms: O_13  and  C_34
REMARK   13  A    between atoms: O_14  and  C_35
REMARK   14  A    between atoms: O_16  and  C_36
REMARK   15  A    between atoms: O_17  and  C_37
REMARK   16  A    between atoms: C_24  and  C_35
REMARK   17  A    between atoms: C_30  and  C_36
REMARK   18  A    between atoms: C_33  and  C_37
REMARK                            x       y       z     vdW  Elec       q    Type
REMARK                         _______ _______ _______ _____ _____    ______ ____
ROOT
ATOM      2  O   UNL     1      -0.968  -1.019   1.157  0.00  0.00    +0.000 OA
ATOM     20  C   UNL     1       0.875  -0.030  -0.131  0.00  0.00    +0.000 C 
ATOM     21  C   UNL     1       0.306   1.371   0.117  0.00  0.00    +0.000 C 
ATOM     22  C   UNL     1      -0.571   1.365   1.376  0.00  0.00    +0.000 C 
ATOM     23  C   UNL     1      -1.614   0.243   1.357  0.00  0.00    +0.000 C 
ATOM     24  C   UNL     1      -0.234  -1.087  -0.064  0.00  0.00    +0.000 C 
ENDROOT
BRANCH  21   6
ATOM      6  O   UNL     1      -0.436   1.798  -1.023  0.00  0.00    +0.000 OA
ATOM     38  H   UNL     1       0.172   1.810  -1.782  0.00  0.00    +0.000 HD
ENDBRANCH  21   6
BRANCH  22   7
ATOM      7  O   UNL     1      -1.195   2.629   1.558  0.00  0.00    +0.000 OA
ATOM     39  H   UNL     1      -0.495   3.303   1.573  0.00  0.00    +0.000 HD
ENDBRANCH  22   7
BRANCH  24  35
ATOM     15  O   UNL     1       0.214  -3.309   0.767  0.00  0.00    +0.000 OA
ATOM     35  C   UNL     1       0.331  -2.471  -0.114  0.00  0.00    +0.000 C 
BRANCH  35  14
ATOM     14  O   UNL     1       0.997  -2.675  -1.277  0.00  0.00    +0.000 OA
ATOM     46  H   UNL     1       1.378  -3.577  -1.328  0.00  0.00    +0.000 HD
ENDBRANCH  35  14
ENDBRANCH  24  35
BRANCH  20   1
ATOM      1  O   UNL     1       1.851  -0.309   0.874  0.00  0.00    +0.000 OA
BRANCH   1  26
ATOM      4  O   UNL     1       3.578   0.561  -0.454  0.00  0.00    +0.000 OA
ATOM     26  C   UNL     1       3.129  -0.565   0.301  0.00  0.00    +0.000 C 
ATOM     28  C   UNL     1       4.120  -0.863   1.427  0.00  0.00    +0.000 C 
ATOM     29  C   UNL     1       5.503  -1.134   0.837  0.00  0.00    +0.000 C 
ATOM     32  C   UNL     1       5.939   0.004  -0.090  0.00  0.00    +0.000 C 
ATOM     33  C   UNL     1       4.832   0.328  -1.094  0.00  0.00    +0.000 C 
BRANCH  28   9
ATOM      9  O   UNL     1       4.179   0.280   2.286  0.00  0.00    +0.000 OA
ATOM     41  H   UNL     1       4.297   1.072   1.734  0.00  0.00    +0.000 HD
ENDBRANCH  28   9
BRANCH  29  10
ATOM     10  O   UNL     1       6.442  -1.290   1.897  0.00  0.00    +0.000 OA
ATOM     42  H   UNL     1       6.131  -2.020   2.459  0.00  0.00    +0.000 HD
ENDBRANCH  29  10
BRANCH  32  12
ATOM     12  O   UNL     1       7.109  -0.421  -0.788  0.00  0.00    +0.000 OA
ATOM     44  H   UNL     1       6.873  -1.189  -1.335  0.00  0.00    +0.000 HD
ENDBRANCH  32  12
BRANCH  33  37
ATOM     19  O   UNL     1       4.391   2.622  -1.700  0.00  0.00    +0.000 OA
ATOM     37  C   UNL     1       5.096   1.627  -1.784  0.00  0.00    +0.000 C 
BRANCH  37  17
ATOM     17  O   UNL     1       6.230   1.554  -2.522  0.00  0.00    +0.000 OA
ATOM     48  H   UNL     1       6.421   2.398  -2.984  0.00  0.00    +0.000 HD
ENDBRANCH  37  17
ENDBRANCH  33  37
ENDBRANCH   1  26
ENDBRANCH  20   1
BRANCH  23   3
ATOM      3  O   UNL     1      -2.611   0.500   0.371  0.00  0.00    +0.000 OA
BRANCH   3  25
ATOM      5  O   UNL     1      -5.027   0.814  -1.238  0.00  0.00    +0.000 OA
ATOM     25  C   UNL     1      -3.878  -0.030   0.762  0.00  0.00    +0.000 C 
ATOM     27  C   UNL     1      -3.993  -1.463   0.233  0.00  0.00    +0.000 C 
ATOM     30  C   UNL     1      -4.992   0.854   0.186  0.00  0.00    +0.000 C 
ATOM     31  C   UNL     1      -4.146  -1.446  -1.294  0.00  0.00    +0.000 C 
ATOM     34  C   UNL     1      -5.255  -0.499  -1.761  0.00  0.00    +0.000 C 
BRANCH  27   8
ATOM      8  O   UNL     1      -5.098  -2.118   0.851  0.00  0.00    +0.000 OA
ATOM     40  H   UNL     1      -4.937  -2.122   1.810  0.00  0.00    +0.000 HD
ENDBRANCH  27   8
BRANCH  31  11
ATOM     11  O   UNL     1      -4.364  -2.760  -1.790  0.00  0.00    +0.000 OA
ATOM     43  H   UNL     1      -3.627  -3.316  -1.483  0.00  0.00    +0.000 HD
ENDBRANCH  31  11
BRANCH  34  13
ATOM     13  O   UNL     1      -6.536  -1.008  -1.397  0.00  0.00    +0.000 OA
ATOM     45  H   UNL     1      -7.178  -0.647  -2.031  0.00  0.00    +0.000 HD
ENDBRANCH  34  13
BRANCH  30  36
ATOM     18  O   UNL     1      -4.615   3.196  -0.263  0.00  0.00    +0.000 OA
ATOM     36  C   UNL     1      -4.784   2.292   0.541  0.00  0.00    +0.000 C 
BRANCH  36  16
ATOM     16  O   UNL     1      -4.805   2.461   1.886  0.00  0.00    +0.000 OA
ATOM     47  H   UNL     1      -4.667   3.398   2.140  0.00  0.00    +0.000 HD
ENDBRANCH  36  16
ENDBRANCH  30  36
ENDBRANCH   3  25
ENDBRANCH  23   3
TORSDOF 18
