44630048
  -OEChem-05112102453D

 63 65  0     1  0  0  0  0  0999 V2000
    1.8501    0.2967    0.8712 O   0  0  0  0  0  0  0  0  0  0  0  0
   -0.9631    1.0057    1.1480 O   0  0  0  0  0  0  0  0  0  0  0  0
   -2.6106   -0.5061    0.3595 O   0  0  0  0  0  0  0  0  0  0  0  0
    3.5876   -0.5526   -0.4579 O   0  0  0  0  0  0  0  0  0  0  0  0
   -5.0343   -0.8045   -1.2312 O   0  0  0  0  0  0  0  0  0  0  0  0
   -0.4841   -1.7339   -1.0605 O   0  0  0  0  0  0  0  0  0  0  0  0
   -1.1758   -2.6529    1.4878 O   0  0  0  0  0  0  0  0  0  0  0  0
   -5.1444    2.0713    0.8498 O   0  0  0  0  0  0  0  0  0  0  0  0
    4.1643   -0.3165    2.2936 O   0  0  0  0  0  0  0  0  0  0  0  0
    6.4542    1.2401    1.9340 O   0  0  0  0  0  0  0  0  0  0  0  0
   -4.3578    2.7776   -1.7385 O   0  0  0  0  0  0  0  0  0  0  0  0
    7.1167    0.4013   -0.7645 O   0  0  0  0  0  0  0  0  0  0  0  0
   -6.5356    1.0239   -1.3892 O   0  0  0  0  0  0  0  0  0  0  0  0
    0.9870    2.6883   -1.2798 O   0  0  0  0  0  0  0  0  0  0  0  0
    0.2079    3.3056    0.7715 O   0  0  0  0  0  0  0  0  0  0  0  0
   -4.8275   -2.4665    1.8869 O   0  0  0  0  0  0  0  0  0  0  0  0
    6.2707   -1.4950   -2.5179 O   0  0  0  0  0  0  0  0  0  0  0  0
   -4.6445   -3.1955   -0.2651 O   0  0  0  0  0  0  0  0  0  0  0  0
    4.4209   -2.5863   -1.7541 O   0  0  0  0  0  0  0  0  0  0  0  0
    0.8830    0.0359   -0.1461 C   0  0  1  0  0  0  0  0  0  0  0  0
    0.3051   -1.3669    0.0687 C   0  0  1  0  0  0  0  0  0  0  0  0
   -0.5584   -1.3813    1.3361 C   0  0  1  0  0  0  0  0  0  0  0  0
   -1.6041   -0.2603    1.3380 C   0  0  1  0  0  0  0  0  0  0  0  0
   -0.2306    1.0865   -0.0725 C   0  0  2  0  0  0  0  0  0  0  0  0
   -3.8739    0.0178    0.7690 C   0  0  1  0  0  0  0  0  0  0  0  0
    3.1335    0.5615    0.3134 C   0  0  2  0  0  0  0  0  0  0  0  0
   -4.0013    1.4571    0.2591 C   0  0  1  0  0  0  0  0  0  0  0  0
    4.1150    0.8395    1.4518 C   0  0  2  0  0  0  0  0  0  0  0  0
    5.5047    1.1165    0.8790 C   0  0  2  0  0  0  0  0  0  0  0  0
   -4.9974   -0.8515    0.1934 C   0  0  2  0  0  0  0  0  0  0  0  0
   -4.1414    1.4535   -1.2682 C   0  0  1  0  0  0  0  0  0  0  0  0
    5.9436   -0.0075   -0.0629 C   0  0  1  0  0  0  0  0  0  0  0  0
    4.8457   -0.3077   -1.0824 C   0  0  1  0  0  0  0  0  0  0  0  0
   -5.2538    0.5132   -1.7462 C   0  0  1  0  0  0  0  0  0  0  0  0
    0.3273    2.4734   -0.1153 C   0  0  0  0  0  0  0  0  0  0  0  0
   -4.8027   -2.2925    0.5430 C   0  0  0  0  0  0  0  0  0  0  0  0
    5.1238   -1.5877   -1.8014 C   0  0  0  0  0  0  0  0  0  0  0  0
    1.3270    0.0880   -1.1497 H   0  0  0  0  0  0  0  0  0  0  0  0
    1.1028   -2.1125    0.1668 H   0  0  0  0  0  0  0  0  0  0  0  0
    0.1013   -1.2303    2.2003 H   0  0  0  0  0  0  0  0  0  0  0  0
   -2.0450   -0.2544    2.3421 H   0  0  0  0  0  0  0  0  0  0  0  0
   -0.9308    0.9862   -0.9095 H   0  0  0  0  0  0  0  0  0  0  0  0
   -3.9793   -0.0011    1.8616 H   0  0  0  0  0  0  0  0  0  0  0  0
    3.0679    1.4454   -0.3325 H   0  0  0  0  0  0  0  0  0  0  0  0
   -3.1410    2.0730    0.5361 H   0  0  0  0  0  0  0  0  0  0  0  0
    3.7742    1.6672    2.0822 H   0  0  0  0  0  0  0  0  0  0  0  0
    5.5024    2.0714    0.3388 H   0  0  0  0  0  0  0  0  0  0  0  0
   -5.9793   -0.5480    0.5770 H   0  0  0  0  0  0  0  0  0  0  0  0
   -3.1974    1.1016   -1.7017 H   0  0  0  0  0  0  0  0  0  0  0  0
    6.2130   -0.9013    0.5121 H   0  0  0  0  0  0  0  0  0  0  0  0
    4.7298    0.4853   -1.8316 H   0  0  0  0  0  0  0  0  0  0  0  0
   -5.2246    0.4580   -2.8403 H   0  0  0  0  0  0  0  0  0  0  0  0
    0.0991   -1.7321   -1.8387 H   0  0  0  0  0  0  0  0  0  0  0  0
   -0.4713   -3.3230    1.4966 H   0  0  0  0  0  0  0  0  0  0  0  0
   -5.0123    2.0704    1.8132 H   0  0  0  0  0  0  0  0  0  0  0  0
    4.2834   -1.1001    1.7308 H   0  0  0  0  0  0  0  0  0  0  0  0
    6.1471    1.9513    2.5218 H   0  0  0  0  0  0  0  0  0  0  0  0
   -3.6159    3.3246   -1.4287 H   0  0  0  0  0  0  0  0  0  0  0  0
    6.8984    1.1959   -1.2808 H   0  0  0  0  0  0  0  0  0  0  0  0
   -7.1742    0.6687   -2.0305 H   0  0  0  0  0  0  0  0  0  0  0  0
    1.3625    3.5932   -1.3266 H   0  0  0  0  0  0  0  0  0  0  0  0
   -4.7005   -3.4065    2.1371 H   0  0  0  0  0  0  0  0  0  0  0  0
    6.4719   -2.3272   -2.9967 H   0  0  0  0  0  0  0  0  0  0  0  0
  1 20  1  0  0  0  0
  1 26  1  0  0  0  0
  2 23  1  0  0  0  0
  2 24  1  0  0  0  0
  3 23  1  0  0  0  0
  3 25  1  0  0  0  0
  4 26  1  0  0  0  0
  4 33  1  0  0  0  0
  5 30  1  0  0  0  0
  5 34  1  0  0  0  0
  6 21  1  0  0  0  0
  6 53  1  0  0  0  0
  7 22  1  0  0  0  0
  7 54  1  0  0  0  0
  8 27  1  0  0  0  0
  8 55  1  0  0  0  0
  9 28  1  0  0  0  0
  9 56  1  0  0  0  0
 10 29  1  0  0  0  0
 10 57  1  0  0  0  0
 11 31  1  0  0  0  0
 11 58  1  0  0  0  0
 12 32  1  0  0  0  0
 12 59  1  0  0  0  0
 13 34  1  0  0  0  0
 13 60  1  0  0  0  0
 14 35  1  0  0  0  0
 14 61  1  0  0  0  0
 15 35  2  0  0  0  0
 16 36  1  0  0  0  0
 16 62  1  0  0  0  0
 17 37  1  0  0  0  0
 17 63  1  0  0  0  0
 18 36  2  0  0  0  0
 19 37  2  0  0  0  0
 20 21  1  0  0  0  0
 20 24  1  0  0  0  0
 20 38  1  0  0  0  0
 21 22  1  0  0  0  0
 21 39  1  0  0  0  0
 22 23  1  0  0  0  0
 22 40  1  0  0  0  0
 23 41  1  0  0  0  0
 24 35  1  0  0  0  0
 24 42  1  0  0  0  0
 25 27  1  0  0  0  0
 25 30  1  0  0  0  0
 25 43  1  0  0  0  0
 26 28  1  0  0  0  0
 26 44  1  0  0  0  0
 27 31  1  0  0  0  0
 27 45  1  0  0  0  0
 28 29  1  0  0  0  0
 28 46  1  0  0  0  0
 29 32  1  0  0  0  0
 29 47  1  0  0  0  0
 30 36  1  0  0  0  0
 30 48  1  0  0  0  0
 31 34  1  0  0  0  0
 31 49  1  0  0  0  0
 32 33  1  0  0  0  0
 32 50  1  0  0  0  0
 33 37  1  0  0  0  0
 33 51  1  0  0  0  0
 34 52  1  0  0  0  0
M  END
> <PUBCHEM_COMPOUND_CID>
44630048

> <PUBCHEM_CONFORMER_RMSD>
1.2

> <PUBCHEM_CONFORMER_DIVERSEORDER>
1
11
25
10
18
13
20
19
30
3
9
28
4
16
23
29
7
31
5
24
27
32
22
21
6
14
26
8
17
12
15
2

> <PUBCHEM_MMFF94_PARTIAL_CHARGES>
48
1 -0.56
10 -0.68
11 -0.68
12 -0.68
13 -0.68
14 -0.65
15 -0.57
16 -0.65
17 -0.65
18 -0.57
19 -0.57
2 -0.56
20 0.28
21 0.28
22 0.28
23 0.56
24 0.34
25 0.28
26 0.56
27 0.28
28 0.28
29 0.28
3 -0.56
30 0.34
31 0.28
32 0.28
33 0.34
34 0.56
35 0.66
36 0.66
37 0.66
4 -0.56
5 -0.56
53 0.4
54 0.4
55 0.4
56 0.4
57 0.4
58 0.4
59 0.4
6 -0.68
60 0.4
61 0.5
62 0.5
63 0.5
7 -0.68
8 -0.68
9 -0.68

> <PUBCHEM_EFFECTIVE_ROTOR_COUNT>
10.6

> <PUBCHEM_PHARMACOPHORE_FEATURES>
33
1 1 acceptor
1 10 acceptor
1 10 donor
1 11 acceptor
1 11 donor
1 12 acceptor
1 12 donor
1 13 acceptor
1 13 donor
1 14 acceptor
1 15 acceptor
1 16 acceptor
1 17 acceptor
1 18 acceptor
1 19 acceptor
1 2 acceptor
1 3 acceptor
1 4 acceptor
1 5 acceptor
1 6 acceptor
1 6 donor
1 7 acceptor
1 7 donor
1 8 acceptor
1 8 donor
1 9 acceptor
1 9 donor
3 14 15 35 anion
3 16 18 36 anion
3 17 19 37 anion
6 2 20 21 22 23 24 rings
6 4 26 28 29 32 33 rings
6 5 25 27 30 31 34 rings

> <PUBCHEM_HEAVY_ATOM_COUNT>
37

> <PUBCHEM_ATOM_DEF_STEREO_COUNT>
15

> <PUBCHEM_ATOM_UDEF_STEREO_COUNT>
0

> <PUBCHEM_BOND_DEF_STEREO_COUNT>
0

> <PUBCHEM_BOND_UDEF_STEREO_COUNT>
0

> <PUBCHEM_ISOTOPIC_ATOM_COUNT>
0

> <PUBCHEM_COMPONENT_COUNT>
1

> <PUBCHEM_CACTVS_TAUTO_COUNT>
1

> <PUBCHEM_CONFORMER_ID>
02A9002000000001

> <PUBCHEM_MMFF94_ENERGY>
97.4344

> <PUBCHEM_FEATURE_SELFOVERLAP>
167.921

> <PUBCHEM_SHAPE_FINGERPRINT>
10675989 125 17109576594727251885
12236239 1 16949995946550378904
13533116 47 16845574214938075074
13782708 43 17917720050613223494
13811026 1 18411412929703319906
14856354 85 17894911849968047583
15183329 4 17894910728432755588
17349148 13 18129674104783334513
20567600 75 18202567289072211918
21033648 29 17917701426875204449
21033650 10 17895206445499933660
22061861 79 18060419088596314742
22393880 68 18261385672474853753
23081809 10 16443062820297649170
23559900 14 18342182159276800656
23569914 152 17121693216441912149
24771750 20 17760373592828100676
2838139 119 15357696396411601046
32027 91 18057047913216771062
350125 39 18187364381088001665
4015057 19 17632577192826306170
508706 21 18334012792166602493
5283173 99 18334575720102115124

> <PUBCHEM_SHAPE_MULTIPOLES>
649.93
17.11
3
1.95
9.55
0.03
0.26
1.56
4.39
-2.76
0.25
1.29
0.39
3.49

> <PUBCHEM_SHAPE_SELFOVERLAP>
1374.283

> <PUBCHEM_SHAPE_VOLUME>
353.8

> <PUBCHEM_COORDINATE_TYPE>
2
5
10

$$$$
