MODEL 1
REMARK VINA RESULT:      -5.8      0.000      0.000
REMARK  6 active torsions:
REMARK  status: ('A' for Active; 'I' for Inactive)
REMARK    1  A    between atoms: O_2  and  C_7 
REMARK    2  A    between atoms: O_3  and  C_8 
REMARK    3  A    between atoms: O_4  and  C_10 
REMARK    4  A    between atoms: O_5  and  C_11 
REMARK    5  A    between atoms: O_6  and  C_12 
REMARK    6  A    between atoms: C_9  and  C_12 
ROOT
HETATM    1  O   UNK N   1      27.494  11.981 124.612  0.00  0.00    -0.349 OA
HETATM    2  C   UNK N   1      28.381  11.343 122.436  0.00  0.00     0.180 C 
HETATM    3  C   UNK N   1      29.808  11.264 123.015  0.00  0.00     0.183 C 
HETATM    4  C   UNK N   1      27.546  12.369 123.246  0.00  0.00     0.179 C 
HETATM    5  C   UNK N   1      29.723  10.990 124.525  0.00  0.00     0.204 C 
HETATM    6  C   UNK N   1      28.787  12.023 125.195  0.00  0.00     0.288 C 
ENDROOT
BRANCH   4   7
HETATM    7  C   UNK N   1      26.111  12.454 122.706  0.00  0.00     0.198 C 
BRANCH   7   8
HETATM    8  O   UNK N   1      25.309  11.456 123.278  0.00  0.00    -0.398 OA
HETATM    9  H   UNK N   1      24.494  11.905 123.624  0.00  0.00     0.209 HD
ENDBRANCH   7   8
ENDBRANCH   4   7
BRANCH   2  10
HETATM   10  O   UNK N   1      28.417  11.677 121.069  0.00  0.00    -0.390 OA
HETATM   11  H   UNK N   1      27.508  11.526 120.699  0.00  0.00     0.210 HD
ENDBRANCH   2  10
BRANCH   6  12
HETATM   12  O   UNK N   1      28.684  11.763 126.571  0.00  0.00    -0.369 OA
HETATM   13  H   UNK N   1      28.703  10.776 126.688  0.00  0.00     0.212 HD
ENDBRANCH   6  12
BRANCH   3  14
HETATM   14  O   UNK N   1      30.544  10.238 122.399  0.00  0.00    -0.390 OA
HETATM   15  H   UNK N   1      31.296  10.668 121.914  0.00  0.00     0.210 HD
ENDBRANCH   3  14
BRANCH   5  16
HETATM   16  O   UNK N   1      30.999  11.003 125.113  0.00  0.00    -0.388 OA
HETATM   17  H   UNK N   1      31.046  10.241 125.748  0.00  0.00     0.210 HD
ENDBRANCH   5  16
TORSDOF 6
ENDMDL
MODEL 2
REMARK VINA RESULT:      -5.6      4.769      7.079
REMARK  6 active torsions:
REMARK  status: ('A' for Active; 'I' for Inactive)
REMARK    1  A    between atoms: O_2  and  C_7 
REMARK    2  A    between atoms: O_3  and  C_8 
REMARK    3  A    between atoms: O_4  and  C_10 
REMARK    4  A    between atoms: O_5  and  C_11 
REMARK    5  A    between atoms: O_6  and  C_12 
REMARK    6  A    between atoms: C_9  and  C_12 
ROOT
HETATM    1  O   UNK N   1      31.362   7.125 118.696  0.00  0.00    -0.349 OA
HETATM    2  C   UNK N   1      30.306   7.319 120.882  0.00  0.00     0.180 C 
HETATM    3  C   UNK N   1      30.615   8.830 120.923  0.00  0.00     0.183 C 
HETATM    4  C   UNK N   1      31.367   6.594 120.014  0.00  0.00     0.179 C 
HETATM    5  C   UNK N   1      30.752   9.354 119.485  0.00  0.00     0.204 C 
HETATM    6  C   UNK N   1      31.766   8.486 118.702  0.00  0.00     0.288 C 
ENDROOT
BRANCH   4   7
HETATM    7  C   UNK N   1      31.074   5.089 119.935  0.00  0.00     0.198 C 
BRANCH   7   8
HETATM    8  O   UNK N   1      31.467   4.446 121.118  0.00  0.00    -0.398 OA
HETATM    9  H   UNK N   1      32.384   4.098 120.966  0.00  0.00     0.209 HD
ENDBRANCH   7   8
ENDBRANCH   4   7
BRANCH   2  10
HETATM   10  O   UNK N   1      30.258   6.786 122.183  0.00  0.00    -0.390 OA
HETATM   11  H   UNK N   1      30.931   7.270 122.730  0.00  0.00     0.210 HD
ENDBRANCH   2  10
BRANCH   6  12
HETATM   12  O   UNK N   1      31.876   8.944 117.380  0.00  0.00    -0.369 OA
HETATM   13  H   UNK N   1      32.388   8.260 116.872  0.00  0.00     0.212 HD
ENDBRANCH   6  12
BRANCH   3  14
HETATM   14  O   UNK N   1      29.591   9.534 121.578  0.00  0.00    -0.390 OA
HETATM   15  H   UNK N   1      29.476  10.395 121.100  0.00  0.00     0.210 HD
ENDBRANCH   3  14
BRANCH   5  16
HETATM   16  O   UNK N   1      31.126  10.708 119.475  0.00  0.00    -0.388 OA
HETATM   17  H   UNK N   1      30.458  11.201 118.930  0.00  0.00     0.210 HD
ENDBRANCH   5  16
TORSDOF 6
ENDMDL
MODEL 3
REMARK VINA RESULT:      -5.5     28.169     30.048
REMARK  6 active torsions:
REMARK  status: ('A' for Active; 'I' for Inactive)
REMARK    1  A    between atoms: O_2  and  C_7 
REMARK    2  A    between atoms: O_3  and  C_8 
REMARK    3  A    between atoms: O_4  and  C_10 
REMARK    4  A    between atoms: O_5  and  C_11 
REMARK    5  A    between atoms: O_6  and  C_12 
REMARK    6  A    between atoms: C_9  and  C_12 
ROOT
HETATM    1  O   UNK N   1      37.985  -3.282  98.501  0.00  0.00    -0.349 OA
HETATM    2  C   UNK N   1      36.145  -2.544  99.916  0.00  0.00     0.180 C 
HETATM    3  C   UNK N   1      35.241  -2.352  98.680  0.00  0.00     0.183 C 
HETATM    4  C   UNK N   1      37.629  -2.348  99.511  0.00  0.00     0.179 C 
HETATM    5  C   UNK N   1      35.737  -3.267  97.549  0.00  0.00     0.204 C 
HETATM    6  C   UNK N   1      37.249  -3.040  97.312  0.00  0.00     0.288 C 
ENDROOT
BRANCH   4   7
HETATM    7  C   UNK N   1      38.556  -2.555 100.717  0.00  0.00     0.198 C 
BRANCH   7   8
HETATM    8  O   UNK N   1      38.413  -1.505 101.636  0.00  0.00    -0.398 OA
HETATM    9  H   UNK N   1      37.441  -1.313 101.705  0.00  0.00     0.209 HD
ENDBRANCH   7   8
ENDBRANCH   4   7
BRANCH   2  10
HETATM   10  O   UNK N   1      35.773  -1.660 100.945  0.00  0.00    -0.390 OA
HETATM   11  H   UNK N   1      36.567  -1.526 101.527  0.00  0.00     0.210 HD
ENDBRANCH   2  10
BRANCH   6  12
HETATM   12  O   UNK N   1      37.714  -3.892  96.297  0.00  0.00    -0.369 OA
HETATM   13  H   UNK N   1      37.283  -3.604  95.449  0.00  0.00     0.212 HD
ENDBRANCH   6  12
BRANCH   3  14
HETATM   14  O   UNK N   1      33.906  -2.668  98.980  0.00  0.00    -0.390 OA
HETATM   15  H   UNK N   1      33.921  -3.354  99.696  0.00  0.00     0.210 HD
ENDBRANCH   3  14
BRANCH   5  16
HETATM   16  O   UNK N   1      35.000  -3.057  96.371  0.00  0.00    -0.388 OA
HETATM   17  H   UNK N   1      34.798  -2.086  96.311  0.00  0.00     0.210 HD
ENDBRANCH   5  16
TORSDOF 6
ENDMDL
MODEL 4
REMARK VINA RESULT:      -5.4      2.146      3.679
REMARK  6 active torsions:
REMARK  status: ('A' for Active; 'I' for Inactive)
REMARK    1  A    between atoms: O_2  and  C_7 
REMARK    2  A    between atoms: O_3  and  C_8 
REMARK    3  A    between atoms: O_4  and  C_10 
REMARK    4  A    between atoms: O_5  and  C_11 
REMARK    5  A    between atoms: O_6  and  C_12 
REMARK    6  A    between atoms: C_9  and  C_12 
ROOT
HETATM    1  O   UNK N   1      29.387  14.418 124.270  0.00  0.00    -0.349 OA
HETATM    2  C   UNK N   1      28.942  12.382 125.531  0.00  0.00     0.180 C 
HETATM    3  C   UNK N   1      29.157  11.525 124.267  0.00  0.00     0.183 C 
HETATM    4  C   UNK N   1      28.439  13.792 125.125  0.00  0.00     0.179 C 
HETATM    5  C   UNK N   1      30.068  12.287 123.292  0.00  0.00     0.204 C 
HETATM    6  C   UNK N   1      29.506  13.708 123.048  0.00  0.00     0.288 C 
ENDROOT
BRANCH   4   7
HETATM    7  C   UNK N   1      28.236  14.678 126.362  0.00  0.00     0.198 C 
BRANCH   7   8
HETATM    8  O   UNK N   1      27.167  14.205 127.138  0.00  0.00    -0.398 OA
HETATM    9  H   UNK N   1      26.674  13.550 126.579  0.00  0.00     0.209 HD
ENDBRANCH   7   8
ENDBRANCH   4   7
BRANCH   2  10
HETATM   10  O   UNK N   1      28.043  11.752 126.412  0.00  0.00    -0.390 OA
HETATM   11  H   UNK N   1      27.540  12.464 126.888  0.00  0.00     0.210 HD
ENDBRANCH   2  10
BRANCH   6  12
HETATM   12  O   UNK N   1      30.348  14.419 122.178  0.00  0.00    -0.369 OA
HETATM   13  H   UNK N   1      31.102  14.772 122.719  0.00  0.00     0.212 HD
ENDBRANCH   6  12
BRANCH   3  14
HETATM   14  O   UNK N   1      29.752  10.294 124.591  0.00  0.00    -0.390 OA
HETATM   15  H   UNK N   1      29.835   9.778 123.748  0.00  0.00     0.210 HD
ENDBRANCH   3  14
BRANCH   5  16
HETATM   16  O   UNK N   1      30.216  11.584 122.085  0.00  0.00    -0.388 OA
HETATM   17  H   UNK N   1      30.492  12.236 121.388  0.00  0.00     0.210 HD
ENDBRANCH   5  16
TORSDOF 6
ENDMDL
MODEL 5
REMARK VINA RESULT:      -5.4     17.951     18.474
REMARK  6 active torsions:
REMARK  status: ('A' for Active; 'I' for Inactive)
REMARK    1  A    between atoms: O_2  and  C_7 
REMARK    2  A    between atoms: O_3  and  C_8 
REMARK    3  A    between atoms: O_4  and  C_10 
REMARK    4  A    between atoms: O_5  and  C_11 
REMARK    5  A    between atoms: O_6  and  C_12 
REMARK    6  A    between atoms: C_9  and  C_12 
ROOT
HETATM    1  O   UNK N   1      15.364   3.239 115.146  0.00  0.00    -0.349 OA
HETATM    2  C   UNK N   1      15.256   1.332 116.658  0.00  0.00     0.180 C 
HETATM    3  C   UNK N   1      15.868   0.414 115.580  0.00  0.00     0.183 C 
HETATM    4  C   UNK N   1      14.484   2.492 115.977  0.00  0.00     0.179 C 
HETATM    5  C   UNK N   1      16.697   1.266 114.606  0.00  0.00     0.204 C 
HETATM    6  C   UNK N   1      15.840   2.440 114.074  0.00  0.00     0.288 C 
ENDROOT
BRANCH   4   7
HETATM    7  C   UNK N   1      13.881   3.438 117.025  0.00  0.00     0.198 C 
BRANCH   7   8
HETATM    8  O   UNK N   1      12.561   3.069 117.321  0.00  0.00    -0.398 OA
HETATM    9  H   UNK N   1      12.607   2.216 117.828  0.00  0.00     0.209 HD
ENDBRANCH   7   8
ENDBRANCH   4   7
BRANCH   2  10
HETATM   10  O   UNK N   1      14.421   0.598 117.520  0.00  0.00    -0.390 OA
HETATM   11  H   UNK N   1      14.948   0.378 118.332  0.00  0.00     0.210 HD
ENDBRANCH   2  10
BRANCH   6  12
HETATM   12  O   UNK N   1      16.600   3.238 113.203  0.00  0.00    -0.369 OA
HETATM   13  H   UNK N   1      16.403   2.934 112.278  0.00  0.00     0.212 HD
ENDBRANCH   6  12
BRANCH   3  14
HETATM   14  O   UNK N   1      16.696  -0.561 116.162  0.00  0.00    -0.390 OA
HETATM   15  H   UNK N   1      16.567  -0.506 117.144  0.00  0.00     0.210 HD
ENDBRANCH   3  14
BRANCH   5  16
HETATM   16  O   UNK N   1      17.197   0.484 113.552  0.00  0.00    -0.388 OA
HETATM   17  H   UNK N   1      16.868  -0.445 113.682  0.00  0.00     0.210 HD
ENDBRANCH   5  16
TORSDOF 6
ENDMDL
MODEL 6
REMARK VINA RESULT:      -5.3      3.091      5.123
REMARK  6 active torsions:
REMARK  status: ('A' for Active; 'I' for Inactive)
REMARK    1  A    between atoms: O_2  and  C_7 
REMARK    2  A    between atoms: O_3  and  C_8 
REMARK    3  A    between atoms: O_4  and  C_10 
REMARK    4  A    between atoms: O_5  and  C_11 
REMARK    5  A    between atoms: O_6  and  C_12 
REMARK    6  A    between atoms: C_9  and  C_12 
ROOT
HETATM    1  O   UNK N   1      29.464  10.227 120.949  0.00  0.00    -0.349 OA
HETATM    2  C   UNK N   1      30.561   8.662 122.459  0.00  0.00     0.180 C 
HETATM    3  C   UNK N   1      30.165   7.476 121.554  0.00  0.00     0.183 C 
HETATM    4  C   UNK N   1      29.523   9.803 122.305  0.00  0.00     0.179 C 
HETATM    5  C   UNK N   1      29.962   7.986 120.118  0.00  0.00     0.204 C 
HETATM    6  C   UNK N   1      28.982   9.183 120.118  0.00  0.00     0.288 C 
ENDROOT
BRANCH   4   7
HETATM    7  C   UNK N   1      29.902  11.008 123.178  0.00  0.00     0.198 C 
BRANCH   7   8
HETATM    8  O   UNK N   1      29.439  10.833 124.490  0.00  0.00    -0.398 OA
HETATM    9  H   UNK N   1      28.974  11.672 124.746  0.00  0.00     0.209 HD
ENDBRANCH   7   8
ENDBRANCH   4   7
BRANCH   2  10
HETATM   10  O   UNK N   1      30.673   8.248 123.799  0.00  0.00    -0.390 OA
HETATM   11  H   UNK N   1      31.236   8.915 124.272  0.00  0.00     0.210 HD
ENDBRANCH   2  10
BRANCH   6  12
HETATM   12  O   UNK N   1      28.812   9.670 118.812  0.00  0.00    -0.369 OA
HETATM   13  H   UNK N   1      29.476  10.396 118.679  0.00  0.00     0.212 HD
ENDBRANCH   6  12
BRANCH   3  14
HETATM   14  O   UNK N   1      31.162   6.487 121.558  0.00  0.00    -0.390 OA
HETATM   15  H   UNK N   1      30.890   5.794 120.903  0.00  0.00     0.210 HD
ENDBRANCH   3  14
BRANCH   5  16
HETATM   16  O   UNK N   1      29.509   6.957 119.277  0.00  0.00    -0.388 OA
HETATM   17  H   UNK N   1      30.243   6.293 119.189  0.00  0.00     0.210 HD
ENDBRANCH   5  16
TORSDOF 6
ENDMDL
MODEL 7
REMARK VINA RESULT:      -5.3     19.351     21.138
REMARK  6 active torsions:
REMARK  status: ('A' for Active; 'I' for Inactive)
REMARK    1  A    between atoms: O_2  and  C_7 
REMARK    2  A    between atoms: O_3  and  C_8 
REMARK    3  A    between atoms: O_4  and  C_10 
REMARK    4  A    between atoms: O_5  and  C_11 
REMARK    5  A    between atoms: O_6  and  C_12 
REMARK    6  A    between atoms: C_9  and  C_12 
ROOT
HETATM    1  O   UNK N   1      36.137  -6.227 115.517  0.00  0.00    -0.349 OA
HETATM    2  C   UNK N   1      35.760  -6.478 117.910  0.00  0.00     0.180 C 
HETATM    3  C   UNK N   1      34.643  -7.509 117.649  0.00  0.00     0.183 C 
HETATM    4  C   UNK N   1      35.859  -5.503 116.709  0.00  0.00     0.179 C 
HETATM    5  C   UNK N   1      34.883  -8.176 116.285  0.00  0.00     0.204 C 
HETATM    6  C   UNK N   1      35.060  -7.092 115.194  0.00  0.00     0.288 C 
ENDROOT
BRANCH   4   7
HETATM    7  C   UNK N   1      36.979  -4.476 116.929  0.00  0.00     0.198 C 
BRANCH   7   8
HETATM    8  O   UNK N   1      37.106  -3.637 115.812  0.00  0.00    -0.398 OA
HETATM    9  H   UNK N   1      36.234  -3.656 115.337  0.00  0.00     0.209 HD
ENDBRANCH   7   8
ENDBRANCH   4   7
BRANCH   2  10
HETATM   10  O   UNK N   1      35.526  -5.787 119.113  0.00  0.00    -0.390 OA
HETATM   11  H   UNK N   1      35.431  -6.463 119.834  0.00  0.00     0.210 HD
ENDBRANCH   2  10
BRANCH   6  12
HETATM   12  O   UNK N   1      35.305  -7.694 113.949  0.00  0.00    -0.369 OA
HETATM   13  H   UNK N   1      34.800  -7.179 113.267  0.00  0.00     0.212 HD
ENDBRANCH   6  12
BRANCH   3  14
HETATM   14  O   UNK N   1      34.626  -8.495 118.650  0.00  0.00    -0.390 OA
HETATM   15  H   UNK N   1      33.720  -8.487 119.053  0.00  0.00     0.210 HD
ENDBRANCH   3  14
BRANCH   5  16
HETATM   16  O   UNK N   1      33.837  -9.056 115.962  0.00  0.00    -0.388 OA
HETATM   17  H   UNK N   1      33.008  -8.517 115.865  0.00  0.00     0.210 HD
ENDBRANCH   5  16
TORSDOF 6
ENDMDL
MODEL 8
REMARK VINA RESULT:      -5.3      1.454      4.290
REMARK  6 active torsions:
REMARK  status: ('A' for Active; 'I' for Inactive)
REMARK    1  A    between atoms: O_2  and  C_7 
REMARK    2  A    between atoms: O_3  and  C_8 
REMARK    3  A    between atoms: O_4  and  C_10 
REMARK    4  A    between atoms: O_5  and  C_11 
REMARK    5  A    between atoms: O_6  and  C_12 
REMARK    6  A    between atoms: C_9  and  C_12 
ROOT
HETATM    1  O   UNK N   1      28.447  10.969 122.743  0.00  0.00    -0.349 OA
HETATM    2  C   UNK N   1      29.327  11.323 124.987  0.00  0.00     0.180 C 
HETATM    3  C   UNK N   1      28.643  12.704 125.062  0.00  0.00     0.183 C 
HETATM    4  C   UNK N   1      29.645  10.979 123.509  0.00  0.00     0.179 C 
HETATM    5  C   UNK N   1      27.434  12.718 124.113  0.00  0.00     0.204 C 
HETATM    6  C   UNK N   1      27.870  12.264 122.699  0.00  0.00     0.288 C 
ENDROOT
BRANCH   4   7
HETATM    7  C   UNK N   1      30.308   9.598 123.398  0.00  0.00     0.198 C 
BRANCH   7   8
HETATM    8  O   UNK N   1      31.573   9.608 124.003  0.00  0.00    -0.398 OA
HETATM    9  H   UNK N   1      31.585   8.861 124.657  0.00  0.00     0.209 HD
ENDBRANCH   7   8
ENDBRANCH   4   7
BRANCH   2  10
HETATM   10  O   UNK N   1      30.489  11.300 125.780  0.00  0.00    -0.390 OA
HETATM   11  H   UNK N   1      30.230  10.975 126.682  0.00  0.00     0.210 HD
ENDBRANCH   2  10
BRANCH   6  12
HETATM   12  O   UNK N   1      26.765  12.250 121.833  0.00  0.00    -0.369 OA
HETATM   13  H   UNK N   1      26.007  11.838 122.326  0.00  0.00     0.212 HD
ENDBRANCH   6  12
BRANCH   3  14
HETATM   14  O   UNK N   1      28.209  12.979 126.369  0.00  0.00    -0.390 OA
HETATM   15  H   UNK N   1      27.926  13.929 126.390  0.00  0.00     0.210 HD
ENDBRANCH   3  14
BRANCH   5  16
HETATM   16  O   UNK N   1      26.835  13.988 124.077  0.00  0.00    -0.388 OA
HETATM   17  H   UNK N   1      27.097  14.468 124.906  0.00  0.00     0.210 HD
ENDBRANCH   5  16
TORSDOF 6
ENDMDL
MODEL 9
REMARK VINA RESULT:      -5.2      1.873      3.258
REMARK  6 active torsions:
REMARK  status: ('A' for Active; 'I' for Inactive)
REMARK    1  A    between atoms: O_2  and  C_7 
REMARK    2  A    between atoms: O_3  and  C_8 
REMARK    3  A    between atoms: O_4  and  C_10 
REMARK    4  A    between atoms: O_5  and  C_11 
REMARK    5  A    between atoms: O_6  and  C_12 
REMARK    6  A    between atoms: C_9  and  C_12 
ROOT
HETATM    1  O   UNK N   1      29.795  13.388 124.964  0.00  0.00    -0.349 OA
HETATM    2  C   UNK N   1      27.545  12.977 124.128  0.00  0.00     0.180 C 
HETATM    3  C   UNK N   1      28.112  12.246 122.893  0.00  0.00     0.183 C 
HETATM    4  C   UNK N   1      28.570  14.027 124.629  0.00  0.00     0.179 C 
HETATM    5  C   UNK N   1      29.503  11.690 123.234  0.00  0.00     0.204 C 
HETATM    6  C   UNK N   1      30.394  12.816 123.811  0.00  0.00     0.288 C 
ENDROOT
BRANCH   4   7
HETATM    7  C   UNK N   1      28.043  14.756 125.873  0.00  0.00     0.198 C 
BRANCH   7   8
HETATM    8  O   UNK N   1      27.862  13.856 126.933  0.00  0.00    -0.398 OA
HETATM    9  H   UNK N   1      27.182  13.196 126.637  0.00  0.00     0.209 HD
ENDBRANCH   7   8
ENDBRANCH   4   7
BRANCH   2  10
HETATM   10  O   UNK N   1      26.306  13.573 123.828  0.00  0.00    -0.390 OA
HETATM   11  H   UNK N   1      26.479  14.322 123.199  0.00  0.00     0.210 HD
ENDBRANCH   2  10
BRANCH   6  12
HETATM   12  O   UNK N   1      31.659  12.308 124.148  0.00  0.00    -0.369 OA
HETATM   13  H   UNK N   1      32.198  13.066 124.497  0.00  0.00     0.212 HD
ENDBRANCH   6  12
BRANCH   3  14
HETATM   14  O   UNK N   1      27.272  11.189 122.506  0.00  0.00    -0.390 OA
HETATM   15  H   UNK N   1      27.433  11.026 121.541  0.00  0.00     0.210 HD
ENDBRANCH   3  14
BRANCH   5  16
HETATM   16  O   UNK N   1      30.099  11.097 122.108  0.00  0.00    -0.388 OA
HETATM   17  H   UNK N   1      30.277  11.817 121.447  0.00  0.00     0.210 HD
ENDBRANCH   5  16
TORSDOF 6
ENDMDL
