MODEL 1
REMARK VINA RESULT:      -6.9      0.000      0.000
REMARK  13 active torsions:
REMARK  status: ('A' for Active; 'I' for Inactive)
REMARK    1  A    between atoms: P_1  and  O_7 
REMARK    2  A    between atoms: P_1  and  O_9 
REMARK    3  A    between atoms: P_1  and  O_10 
REMARK    4  A    between atoms: P_2  and  O_8 
REMARK    5  A    between atoms: P_2  and  O_11 
REMARK    6  A    between atoms: P_2  and  O_12 
REMARK    7  A    between atoms: O_4  and  C_15 
REMARK    8  A    between atoms: O_5  and  C_16 
REMARK    9  A    between atoms: O_6  and  C_17 
REMARK   10  A    between atoms: O_7  and  C_19 
REMARK   11  A    between atoms: O_8  and  C_20 
REMARK   12  A    between atoms: C_15  and  C_19 
REMARK   13  A    between atoms: C_18  and  C_20 
ROOT
HETATM    1  O   UNK N   1      28.067  10.870 120.807  0.00  0.00    -0.341 OA
HETATM    2  C   UNK N   1      28.192  12.155 121.386  0.00  0.00     0.213 C 
HETATM    3  C   UNK N   1      29.411  12.808 120.701  0.00  0.00     0.214 C 
HETATM    4  C   UNK N   1      29.163  12.360 119.279  0.00  0.00     0.183 C 
HETATM    5  C   UNK N   1      28.657  10.925 119.513  0.00  0.00     0.181 C 
ENDROOT
BRANCH   2   6
HETATM    6  O   UNK N   1      27.001  12.864 121.109  0.00  0.00    -0.362 OA
HETATM    7  H   UNK N   1      26.340  12.232 120.725  0.00  0.00     0.213 HD
ENDBRANCH   2   6
BRANCH   2   8
HETATM    8  C   UNK N   1      28.353  12.034 122.912  0.00  0.00     0.251 C 
BRANCH   8   9
HETATM    9  O   UNK N   1      28.983  10.817 123.232  0.00  0.00    -0.292 OA
BRANCH   9  10
HETATM   10  P   UNK N   1      30.148  11.137 124.494  0.00  0.00     0.390 P 
HETATM   11  O   UNK N   1      30.706  12.558 124.215  0.00  0.00    -0.632 OA
BRANCH  10  12
HETATM   12  O   UNK N   1      31.486  10.032 124.421  0.00  0.00    -0.307 OA
HETATM   13  H   UNK N   1      32.004  10.207 125.248  0.00  0.00     0.222 HD
ENDBRANCH  10  12
BRANCH  10  14
HETATM   14  O   UNK N   1      29.400  11.172 126.062  0.00  0.00    -0.307 OA
HETATM   15  H   UNK N   1      29.716  12.015 126.474  0.00  0.00     0.222 HD
ENDBRANCH  10  14
ENDBRANCH   9  10
ENDBRANCH   8   9
ENDBRANCH   2   8
BRANCH   3  16
HETATM   16  O   UNK N   1      30.601  12.238 121.188  0.00  0.00    -0.387 OA
HETATM   17  H   UNK N   1      30.394  11.294 121.414  0.00  0.00     0.210 HD
ENDBRANCH   3  16
BRANCH   5  18
HETATM   18  C   UNK N   1      29.771   9.873 119.401  0.00  0.00     0.215 C 
BRANCH  18  19
HETATM   19  O   UNK N   1      30.932  10.513 118.917  0.00  0.00    -0.294 OA
BRANCH  19  20
HETATM   20  P   UNK N   1      31.897   9.394 117.986  0.00  0.00     0.390 P 
HETATM   21  O   UNK N   1      31.477   7.956 118.393  0.00  0.00    -0.632 OA
BRANCH  20  22
HETATM   22  O   UNK N   1      33.594   9.597 118.296  0.00  0.00    -0.307 OA
HETATM   23  H   UNK N   1      34.032   9.435 117.422  0.00  0.00     0.222 HD
ENDBRANCH  20  22
BRANCH  20  24
HETATM   24  O   UNK N   1      31.543   9.591 116.297  0.00  0.00    -0.307 OA
HETATM   25  H   UNK N   1      32.301  10.114 115.935  0.00  0.00     0.222 HD
ENDBRANCH  20  24
ENDBRANCH  19  20
ENDBRANCH  18  19
ENDBRANCH   5  18
BRANCH   4  26
HETATM   26  O   UNK N   1      28.120  13.121 118.718  0.00  0.00    -0.390 OA
HETATM   27  H   UNK N   1      27.702  12.555 118.016  0.00  0.00     0.210 HD
ENDBRANCH   4  26
TORSDOF 13
ENDMDL
MODEL 2
REMARK VINA RESULT:      -6.8      1.627      2.202
REMARK  13 active torsions:
REMARK  status: ('A' for Active; 'I' for Inactive)
REMARK    1  A    between atoms: P_1  and  O_7 
REMARK    2  A    between atoms: P_1  and  O_9 
REMARK    3  A    between atoms: P_1  and  O_10 
REMARK    4  A    between atoms: P_2  and  O_8 
REMARK    5  A    between atoms: P_2  and  O_11 
REMARK    6  A    between atoms: P_2  and  O_12 
REMARK    7  A    between atoms: O_4  and  C_15 
REMARK    8  A    between atoms: O_5  and  C_16 
REMARK    9  A    between atoms: O_6  and  C_17 
REMARK   10  A    between atoms: O_7  and  C_19 
REMARK   11  A    between atoms: O_8  and  C_20 
REMARK   12  A    between atoms: C_15  and  C_19 
REMARK   13  A    between atoms: C_18  and  C_20 
ROOT
HETATM    1  O   UNK N   1      27.751  11.218 120.553  0.00  0.00    -0.341 OA
HETATM    2  C   UNK N   1      28.215  12.363 121.242  0.00  0.00     0.213 C 
HETATM    3  C   UNK N   1      29.467  12.838 120.476  0.00  0.00     0.214 C 
HETATM    4  C   UNK N   1      28.976  12.642 119.059  0.00  0.00     0.183 C 
HETATM    5  C   UNK N   1      28.197  11.322 119.205  0.00  0.00     0.181 C 
ENDROOT
BRANCH   2   6
HETATM    6  O   UNK N   1      27.185  13.330 121.203  0.00  0.00    -0.362 OA
HETATM    7  H   UNK N   1      26.572  13.106 120.455  0.00  0.00     0.213 HD
ENDBRANCH   2   6
BRANCH   2   8
HETATM    8  C   UNK N   1      28.508  12.011 122.713  0.00  0.00     0.251 C 
BRANCH   8   9
HETATM    9  O   UNK N   1      28.828  10.645 122.823  0.00  0.00    -0.292 OA
BRANCH   9  10
HETATM   10  P   UNK N   1      30.118  10.494 123.991  0.00  0.00     0.390 P 
HETATM   11  O   UNK N   1      29.491  10.824 125.371  0.00  0.00    -0.632 OA
BRANCH  10  12
HETATM   12  O   UNK N   1      31.377  11.656 123.702  0.00  0.00    -0.307 OA
HETATM   13  H   UNK N   1      31.522  11.633 122.722  0.00  0.00     0.222 HD
ENDBRANCH  10  12
BRANCH  10  14
HETATM   14  O   UNK N   1      30.722   8.867 124.071  0.00  0.00    -0.307 OA
HETATM   15  H   UNK N   1      31.019   8.753 125.009  0.00  0.00     0.222 HD
ENDBRANCH  10  14
ENDBRANCH   9  10
ENDBRANCH   8   9
ENDBRANCH   2   8
BRANCH   3  16
HETATM   16  O   UNK N   1      30.548  11.979 120.737  0.00  0.00    -0.387 OA
HETATM   17  H   UNK N   1      30.166  11.149 121.126  0.00  0.00     0.210 HD
ENDBRANCH   3  16
BRANCH   5  18
HETATM   18  C   UNK N   1      29.036  10.089 118.835  0.00  0.00     0.215 C 
BRANCH  18  19
HETATM   19  O   UNK N   1      28.566   8.995 119.594  0.00  0.00    -0.294 OA
BRANCH  19  20
HETATM   20  P   UNK N   1      29.909   8.086 120.243  0.00  0.00     0.390 P 
HETATM   21  O   UNK N   1      30.274   6.984 119.213  0.00  0.00    -0.632 OA
BRANCH  20  22
HETATM   22  O   UNK N   1      29.504   7.335 121.756  0.00  0.00    -0.307 OA
HETATM   23  H   UNK N   1      29.210   6.420 121.513  0.00  0.00     0.222 HD
ENDBRANCH  20  22
BRANCH  20  24
HETATM   24  O   UNK N   1      31.286   9.131 120.412  0.00  0.00    -0.307 OA
HETATM   25  H   UNK N   1      31.236   9.472 121.340  0.00  0.00     0.222 HD
ENDBRANCH  20  24
ENDBRANCH  19  20
ENDBRANCH  18  19
ENDBRANCH   5  18
BRANCH   4  26
HETATM   26  O   UNK N   1      28.071  13.666 118.725  0.00  0.00    -0.390 OA
HETATM   27  H   UNK N   1      27.222  13.221 118.463  0.00  0.00     0.210 HD
ENDBRANCH   4  26
TORSDOF 13
ENDMDL
MODEL 3
REMARK VINA RESULT:      -6.4      2.720      4.246
REMARK  13 active torsions:
REMARK  status: ('A' for Active; 'I' for Inactive)
REMARK    1  A    between atoms: P_1  and  O_7 
REMARK    2  A    between atoms: P_1  and  O_9 
REMARK    3  A    between atoms: P_1  and  O_10 
REMARK    4  A    between atoms: P_2  and  O_8 
REMARK    5  A    between atoms: P_2  and  O_11 
REMARK    6  A    between atoms: P_2  and  O_12 
REMARK    7  A    between atoms: O_4  and  C_15 
REMARK    8  A    between atoms: O_5  and  C_16 
REMARK    9  A    between atoms: O_6  and  C_17 
REMARK   10  A    between atoms: O_7  and  C_19 
REMARK   11  A    between atoms: O_8  and  C_20 
REMARK   12  A    between atoms: C_15  and  C_19 
REMARK   13  A    between atoms: C_18  and  C_20 
ROOT
HETATM    1  O   UNK N   1      30.122  12.132 122.394  0.00  0.00    -0.341 OA
HETATM    2  C   UNK N   1      30.255  12.578 123.730  0.00  0.00     0.213 C 
HETATM    3  C   UNK N   1      29.630  11.473 124.608  0.00  0.00     0.214 C 
HETATM    4  C   UNK N   1      30.169  10.256 123.891  0.00  0.00     0.183 C 
HETATM    5  C   UNK N   1      30.050  10.711 122.424  0.00  0.00     0.181 C 
ENDROOT
BRANCH   2   6
HETATM    6  O   UNK N   1      31.635  12.729 123.994  0.00  0.00    -0.362 OA
HETATM    7  H   UNK N   1      31.958  13.540 123.523  0.00  0.00     0.213 HD
ENDBRANCH   2   6
BRANCH   2   8
HETATM    8  C   UNK N   1      29.565  13.944 123.903  0.00  0.00     0.251 C 
BRANCH   8   9
HETATM    9  O   UNK N   1      29.347  14.201 125.269  0.00  0.00    -0.292 OA
BRANCH   9  10
HETATM   10  P   UNK N   1      27.742  14.871 125.435  0.00  0.00     0.390 P 
HETATM   11  O   UNK N   1      26.809  13.972 124.580  0.00  0.00    -0.632 OA
BRANCH  10  12
HETATM   12  O   UNK N   1      27.653  16.478 124.781  0.00  0.00    -0.307 OA
HETATM   13  H   UNK N   1      26.693  16.718 124.832  0.00  0.00     0.222 HD
ENDBRANCH  10  12
BRANCH  10  14
HETATM   14  O   UNK N   1      27.180  14.789 127.076  0.00  0.00    -0.307 OA
HETATM   15  H   UNK N   1      27.782  14.138 127.518  0.00  0.00     0.222 HD
ENDBRANCH  10  14
ENDBRANCH   9  10
ENDBRANCH   8   9
ENDBRANCH   2   8
BRANCH   3  16
HETATM   16  O   UNK N   1      28.227  11.513 124.508  0.00  0.00    -0.387 OA
HETATM   17  H   UNK N   1      27.891  10.650 124.866  0.00  0.00     0.210 HD
ENDBRANCH   3  16
BRANCH   5  18
HETATM   18  C   UNK N   1      28.750  10.239 121.755  0.00  0.00     0.215 C 
BRANCH  18  19
HETATM   19  O   UNK N   1      28.903   8.878 121.411  0.00  0.00    -0.294 OA
BRANCH  19  20
HETATM   20  P   UNK N   1      29.678   8.731 119.853  0.00  0.00     0.390 P 
HETATM   21  O   UNK N   1      29.333   7.327 119.285  0.00  0.00    -0.632 OA
BRANCH  20  22
HETATM   22  O   UNK N   1      31.404   8.882 119.977  0.00  0.00    -0.307 OA
HETATM   23  H   UNK N   1      31.757   8.005 119.680  0.00  0.00     0.222 HD
ENDBRANCH  20  22
BRANCH  20  24
HETATM   24  O   UNK N   1      29.023   9.917 118.766  0.00  0.00    -0.307 OA
HETATM   25  H   UNK N   1      29.786  10.196 118.201  0.00  0.00     0.222 HD
ENDBRANCH  20  24
ENDBRANCH  19  20
ENDBRANCH  18  19
ENDBRANCH   5  18
BRANCH   4  26
HETATM   26  O   UNK N   1      31.530  10.087 124.202  0.00  0.00    -0.390 OA
HETATM   27  H   UNK N   1      31.581   9.936 125.183  0.00  0.00     0.210 HD
ENDBRANCH   4  26
TORSDOF 13
ENDMDL
MODEL 4
REMARK VINA RESULT:      -6.3      2.535      5.997
REMARK  13 active torsions:
REMARK  status: ('A' for Active; 'I' for Inactive)
REMARK    1  A    between atoms: P_1  and  O_7 
REMARK    2  A    between atoms: P_1  and  O_9 
REMARK    3  A    between atoms: P_1  and  O_10 
REMARK    4  A    between atoms: P_2  and  O_8 
REMARK    5  A    between atoms: P_2  and  O_11 
REMARK    6  A    between atoms: P_2  and  O_12 
REMARK    7  A    between atoms: O_4  and  C_15 
REMARK    8  A    between atoms: O_5  and  C_16 
REMARK    9  A    between atoms: O_6  and  C_17 
REMARK   10  A    between atoms: O_7  and  C_19 
REMARK   11  A    between atoms: O_8  and  C_20 
REMARK   12  A    between atoms: C_15  and  C_19 
REMARK   13  A    between atoms: C_18  and  C_20 
ROOT
HETATM    1  O   UNK N   1      30.563   9.671 120.796  0.00  0.00    -0.341 OA
HETATM    2  C   UNK N   1      30.246   8.485 120.092  0.00  0.00     0.213 C 
HETATM    3  C   UNK N   1      28.724   8.537 119.844  0.00  0.00     0.214 C 
HETATM    4  C   UNK N   1      28.584   9.997 119.477  0.00  0.00     0.183 C 
HETATM    5  C   UNK N   1      29.570  10.638 120.471  0.00  0.00     0.181 C 
ENDROOT
BRANCH   2   6
HETATM    6  O   UNK N   1      30.970   8.504 118.879  0.00  0.00    -0.362 OA
HETATM    7  H   UNK N   1      31.445   9.373 118.809  0.00  0.00     0.213 HD
ENDBRANCH   2   6
BRANCH   2   8
HETATM    8  C   UNK N   1      30.680   7.254 120.909  0.00  0.00     0.251 C 
BRANCH   8   9
HETATM    9  O   UNK N   1      29.808   6.180 120.656  0.00  0.00    -0.292 OA
BRANCH   9  10
HETATM   10  P   UNK N   1      30.754   4.873 119.987  0.00  0.00     0.390 P 
HETATM   11  O   UNK N   1      31.819   5.536 119.073  0.00  0.00    -0.632 OA
BRANCH  10  12
HETATM   12  O   UNK N   1      29.786   3.835 118.984  0.00  0.00    -0.307 OA
HETATM   13  H   UNK N   1      30.061   4.052 118.057  0.00  0.00     0.222 HD
ENDBRANCH  10  12
BRANCH  10  14
HETATM   14  O   UNK N   1      31.603   3.998 121.224  0.00  0.00    -0.307 OA
HETATM   15  H   UNK N   1      30.910   3.444 121.663  0.00  0.00     0.222 HD
ENDBRANCH  10  14
ENDBRANCH   9  10
ENDBRANCH   8   9
ENDBRANCH   2   8
BRANCH   3  16
HETATM   16  O   UNK N   1      28.031   8.268 121.037  0.00  0.00    -0.387 OA
HETATM   17  H   UNK N   1      27.107   8.612 120.915  0.00  0.00     0.210 HD
ENDBRANCH   3  16
BRANCH   5  18
HETATM   18  C   UNK N   1      28.887  11.137 121.753  0.00  0.00     0.215 C 
BRANCH  18  19
HETATM   19  O   UNK N   1      29.781  12.004 122.418  0.00  0.00    -0.294 OA
BRANCH  19  20
HETATM   20  P   UNK N   1      30.271  11.313 123.946  0.00  0.00     0.390 P 
HETATM   21  O   UNK N   1      31.306  12.276 124.589  0.00  0.00    -0.632 OA
BRANCH  20  22
HETATM   22  O   UNK N   1      31.003   9.752 123.740  0.00  0.00    -0.307 OA
HETATM   23  H   UNK N   1      30.364   9.117 124.153  0.00  0.00     0.222 HD
ENDBRANCH  20  22
BRANCH  20  24
HETATM   24  O   UNK N   1      28.899  11.226 125.007  0.00  0.00    -0.307 OA
HETATM   25  H   UNK N   1      28.158  11.645 124.502  0.00  0.00     0.222 HD
ENDBRANCH  20  24
ENDBRANCH  19  20
ENDBRANCH  18  19
ENDBRANCH   5  18
BRANCH   4  26
HETATM   26  O   UNK N   1      29.062  10.205 118.170  0.00  0.00    -0.390 OA
HETATM   27  H   UNK N   1      29.437   9.337 117.863  0.00  0.00     0.210 HD
ENDBRANCH   4  26
TORSDOF 13
ENDMDL
MODEL 5
REMARK VINA RESULT:      -6.3     17.314     20.029
REMARK  13 active torsions:
REMARK  status: ('A' for Active; 'I' for Inactive)
REMARK    1  A    between atoms: P_1  and  O_7 
REMARK    2  A    between atoms: P_1  and  O_9 
REMARK    3  A    between atoms: P_1  and  O_10 
REMARK    4  A    between atoms: P_2  and  O_8 
REMARK    5  A    between atoms: P_2  and  O_11 
REMARK    6  A    between atoms: P_2  and  O_12 
REMARK    7  A    between atoms: O_4  and  C_15 
REMARK    8  A    between atoms: O_5  and  C_16 
REMARK    9  A    between atoms: O_6  and  C_17 
REMARK   10  A    between atoms: O_7  and  C_19 
REMARK   11  A    between atoms: O_8  and  C_20 
REMARK   12  A    between atoms: C_15  and  C_19 
REMARK   13  A    between atoms: C_18  and  C_20 
ROOT
HETATM    1  O   UNK N   1      36.584  -7.062 117.623  0.00  0.00    -0.341 OA
HETATM    2  C   UNK N   1      35.392  -6.306 117.715  0.00  0.00     0.213 C 
HETATM    3  C   UNK N   1      34.281  -7.197 117.120  0.00  0.00     0.214 C 
HETATM    4  C   UNK N   1      34.684  -8.525 117.721  0.00  0.00     0.183 C 
HETATM    5  C   UNK N   1      36.217  -8.437 117.609  0.00  0.00     0.181 C 
ENDROOT
BRANCH   2   6
HETATM    6  O   UNK N   1      35.162  -6.036 119.083  0.00  0.00    -0.362 OA
HETATM    7  H   UNK N   1      34.973  -6.894 119.544  0.00  0.00     0.213 HD
ENDBRANCH   2   6
BRANCH   2   8
HETATM    8  C   UNK N   1      35.555  -4.970 116.967  0.00  0.00     0.251 C 
BRANCH   8   9
HETATM    9  O   UNK N   1      36.201  -5.186 115.736  0.00  0.00    -0.292 OA
BRANCH   9  10
HETATM   10  P   UNK N   1      37.705  -4.298 115.762  0.00  0.00     0.390 P 
HETATM   11  O   UNK N   1      38.563  -4.869 114.601  0.00  0.00    -0.632 OA
BRANCH  10  12
HETATM   12  O   UNK N   1      38.581  -4.572 117.237  0.00  0.00    -0.307 OA
HETATM   13  H   UNK N   1      37.925  -4.390 117.958  0.00  0.00     0.222 HD
ENDBRANCH  10  12
BRANCH  10  14
HETATM   14  O   UNK N   1      37.457  -2.609 115.441  0.00  0.00    -0.307 OA
HETATM   15  H   UNK N   1      38.360  -2.206 115.494  0.00  0.00     0.222 HD
ENDBRANCH  10  14
ENDBRANCH   9  10
ENDBRANCH   8   9
ENDBRANCH   2   8
BRANCH   3  16
HETATM   16  O   UNK N   1      34.398  -7.243 115.719  0.00  0.00    -0.387 OA
HETATM   17  H   UNK N   1      34.780  -8.132 115.494  0.00  0.00     0.210 HD
ENDBRANCH   3  16
BRANCH   5  18
HETATM   18  C   UNK N   1      36.764  -9.111 116.342  0.00  0.00     0.215 C 
BRANCH  18  19
HETATM   19  O   UNK N   1      37.440  -8.133 115.581  0.00  0.00    -0.294 OA
BRANCH  19  20
HETATM   20  P   UNK N   1      37.287  -8.478 113.876  0.00  0.00     0.390 P 
HETATM   21  O   UNK N   1      38.040  -9.806 113.594  0.00  0.00    -0.632 OA
BRANCH  20  22
HETATM   22  O   UNK N   1      37.978  -7.218 112.901  0.00  0.00    -0.307 OA
HETATM   23  H   UNK N   1      37.292  -6.503 112.888  0.00  0.00     0.222 HD
ENDBRANCH  20  22
BRANCH  20  24
HETATM   24  O   UNK N   1      35.613  -8.725 113.484  0.00  0.00    -0.307 OA
HETATM   25  H   UNK N   1      35.112  -8.254 114.196  0.00  0.00     0.222 HD
ENDBRANCH  20  24
ENDBRANCH  19  20
ENDBRANCH  18  19
ENDBRANCH   5  18
BRANCH   4  26
HETATM   26  O   UNK N   1      34.331  -8.555 119.082  0.00  0.00    -0.390 OA
HETATM   27  H   UNK N   1      34.724  -7.742 119.496  0.00  0.00     0.210 HD
ENDBRANCH   4  26
TORSDOF 13
ENDMDL
MODEL 6
REMARK VINA RESULT:      -6.2      2.694      4.413
REMARK  13 active torsions:
REMARK  status: ('A' for Active; 'I' for Inactive)
REMARK    1  A    between atoms: P_1  and  O_7 
REMARK    2  A    between atoms: P_1  and  O_9 
REMARK    3  A    between atoms: P_1  and  O_10 
REMARK    4  A    between atoms: P_2  and  O_8 
REMARK    5  A    between atoms: P_2  and  O_11 
REMARK    6  A    between atoms: P_2  and  O_12 
REMARK    7  A    between atoms: O_4  and  C_15 
REMARK    8  A    between atoms: O_5  and  C_16 
REMARK    9  A    between atoms: O_6  and  C_17 
REMARK   10  A    between atoms: O_7  and  C_19 
REMARK   11  A    between atoms: O_8  and  C_20 
REMARK   12  A    between atoms: C_15  and  C_19 
REMARK   13  A    between atoms: C_18  and  C_20 
ROOT
HETATM    1  O   UNK N   1      27.674  12.496 121.605  0.00  0.00    -0.341 OA
HETATM    2  C   UNK N   1      28.271  13.416 120.712  0.00  0.00     0.213 C 
HETATM    3  C   UNK N   1      29.486  12.684 120.103  0.00  0.00     0.214 C 
HETATM    4  C   UNK N   1      28.867  11.322 119.885  0.00  0.00     0.183 C 
HETATM    5  C   UNK N   1      28.014  11.187 121.160  0.00  0.00     0.181 C 
ENDROOT
BRANCH   2   6
HETATM    6  O   UNK N   1      27.311  13.736 119.726  0.00  0.00    -0.362 OA
HETATM    7  H   UNK N   1      26.440  13.891 120.174  0.00  0.00     0.213 HD
ENDBRANCH   2   6
BRANCH   2   8
HETATM    8  C   UNK N   1      28.661  14.704 121.462  0.00  0.00     0.251 C 
BRANCH   8   9
HETATM    9  O   UNK N   1      29.469  14.387 122.569  0.00  0.00    -0.292 OA
BRANCH   9  10
HETATM   10  P   UNK N   1      28.588  14.822 124.013  0.00  0.00     0.390 P 
HETATM   11  O   UNK N   1      29.582  14.654 125.192  0.00  0.00    -0.632 OA
BRANCH  10  12
HETATM   12  O   UNK N   1      27.258  13.740 124.297  0.00  0.00    -0.307 OA
HETATM   13  H   UNK N   1      26.545  14.049 123.683  0.00  0.00     0.222 HD
ENDBRANCH  10  12
BRANCH  10  14
HETATM   14  O   UNK N   1      28.094  16.487 123.984  0.00  0.00    -0.307 OA
HETATM   15  H   UNK N   1      27.692  16.617 123.088  0.00  0.00     0.222 HD
ENDBRANCH  10  14
ENDBRANCH   9  10
ENDBRANCH   8   9
ENDBRANCH   2   8
BRANCH   3  16
HETATM   16  O   UNK N   1      30.523  12.600 121.048  0.00  0.00    -0.387 OA
HETATM   17  H   UNK N   1      30.130  12.204 121.869  0.00  0.00     0.210 HD
ENDBRANCH   3  16
BRANCH   5  18
HETATM   18  C   UNK N   1      28.732  10.422 122.282  0.00  0.00     0.215 C 
BRANCH  18  19
HETATM   19  O   UNK N   1      28.640  11.190 123.464  0.00  0.00    -0.294 OA
BRANCH  19  20
HETATM   20  P   UNK N   1      30.095  11.013 124.414  0.00  0.00     0.390 P 
HETATM   21  O   UNK N   1      29.707  11.186 125.908  0.00  0.00    -0.632 OA
BRANCH  20  22
HETATM   22  O   UNK N   1      31.284  12.209 123.997  0.00  0.00    -0.307 OA
HETATM   23  H   UNK N   1      30.780  13.062 123.957  0.00  0.00     0.222 HD
ENDBRANCH  20  22
BRANCH  20  24
HETATM   24  O   UNK N   1      30.726   9.408 124.213  0.00  0.00    -0.307 OA
HETATM   25  H   UNK N   1      30.152   8.834 124.780  0.00  0.00     0.222 HD
ENDBRANCH  20  24
ENDBRANCH  19  20
ENDBRANCH  18  19
ENDBRANCH   5  18
BRANCH   4  26
HETATM   26  O   UNK N   1      28.010  11.363 118.770  0.00  0.00    -0.390 OA
HETATM   27  H   UNK N   1      27.223  11.908 119.036  0.00  0.00     0.210 HD
ENDBRANCH   4  26
TORSDOF 13
ENDMDL
MODEL 7
REMARK VINA RESULT:      -6.2      3.261      6.070
REMARK  13 active torsions:
REMARK  status: ('A' for Active; 'I' for Inactive)
REMARK    1  A    between atoms: P_1  and  O_7 
REMARK    2  A    between atoms: P_1  and  O_9 
REMARK    3  A    between atoms: P_1  and  O_10 
REMARK    4  A    between atoms: P_2  and  O_8 
REMARK    5  A    between atoms: P_2  and  O_11 
REMARK    6  A    between atoms: P_2  and  O_12 
REMARK    7  A    between atoms: O_4  and  C_15 
REMARK    8  A    between atoms: O_5  and  C_16 
REMARK    9  A    between atoms: O_6  and  C_17 
REMARK   10  A    between atoms: O_7  and  C_19 
REMARK   11  A    between atoms: O_8  and  C_20 
REMARK   12  A    between atoms: C_15  and  C_19 
REMARK   13  A    between atoms: C_18  and  C_20 
ROOT
HETATM    1  O   UNK N   1      27.864  14.551 122.070  0.00  0.00    -0.341 OA
HETATM    2  C   UNK N   1      28.645  14.799 120.916  0.00  0.00     0.213 C 
HETATM    3  C   UNK N   1      29.485  13.523 120.694  0.00  0.00     0.214 C 
HETATM    4  C   UNK N   1      28.432  12.481 120.998  0.00  0.00     0.183 C 
HETATM    5  C   UNK N   1      27.708  13.141 122.185  0.00  0.00     0.181 C 
ENDROOT
BRANCH   2   6
HETATM    6  O   UNK N   1      27.756  15.026 119.841  0.00  0.00    -0.362 OA
HETATM    7  H   UNK N   1      27.813  15.983 119.584  0.00  0.00     0.213 HD
ENDBRANCH   2   6
BRANCH   2   8
HETATM    8  C   UNK N   1      29.508  16.058 121.122  0.00  0.00     0.251 C 
BRANCH   8   9
HETATM    9  O   UNK N   1      30.559  16.074 120.187  0.00  0.00    -0.292 OA
BRANCH   9  10
HETATM   10  P   UNK N   1      30.416  17.543 119.253  0.00  0.00     0.390 P 
HETATM   11  O   UNK N   1      28.911  17.687 118.904  0.00  0.00    -0.632 OA
BRANCH  10  12
HETATM   12  O   UNK N   1      31.287  17.431 117.753  0.00  0.00    -0.307 OA
HETATM   13  H   UNK N   1      30.619  17.655 117.056  0.00  0.00     0.222 HD
ENDBRANCH  10  12
BRANCH  10  14
HETATM   14  O   UNK N   1      30.870  18.940 120.181  0.00  0.00    -0.307 OA
HETATM   15  H   UNK N   1      30.235  18.957 120.940  0.00  0.00     0.222 HD
ENDBRANCH  10  14
ENDBRANCH   9  10
ENDBRANCH   8   9
ENDBRANCH   2   8
BRANCH   3  16
HETATM   16  O   UNK N   1      30.521  13.456 121.643  0.00  0.00    -0.387 OA
HETATM   17  H   UNK N   1      30.095  13.252 122.516  0.00  0.00     0.210 HD
ENDBRANCH   3  16
BRANCH   5  18
HETATM   18  C   UNK N   1      28.235  12.666 123.547  0.00  0.00     0.215 C 
BRANCH  18  19
HETATM   19  O   UNK N   1      28.722  11.350 123.393  0.00  0.00    -0.294 OA
BRANCH  19  20
HETATM   20  P   UNK N   1      30.006  11.042 124.538  0.00  0.00     0.390 P 
HETATM   21  O   UNK N   1      31.107  12.113 124.312  0.00  0.00    -0.632 OA
BRANCH  20  22
HETATM   22  O   UNK N   1      30.698   9.464 124.317  0.00  0.00    -0.307 OA
HETATM   23  H   UNK N   1      31.442   9.421 124.970  0.00  0.00     0.222 HD
ENDBRANCH  20  22
BRANCH  20  24
HETATM   24  O   UNK N   1      29.399  11.238 126.153  0.00  0.00    -0.307 OA
HETATM   25  H   UNK N   1      28.414  11.195 126.064  0.00  0.00     0.222 HD
ENDBRANCH  20  24
ENDBRANCH  19  20
ENDBRANCH  18  19
ENDBRANCH   5  18
BRANCH   4  26
HETATM   26  O   UNK N   1      27.536  12.385 119.918  0.00  0.00    -0.390 OA
HETATM   27  H   UNK N   1      26.907  11.647 120.135  0.00  0.00     0.210 HD
ENDBRANCH   4  26
TORSDOF 13
ENDMDL
MODEL 8
REMARK VINA RESULT:      -6.1      2.260      5.765
REMARK  13 active torsions:
REMARK  status: ('A' for Active; 'I' for Inactive)
REMARK    1  A    between atoms: P_1  and  O_7 
REMARK    2  A    between atoms: P_1  and  O_9 
REMARK    3  A    between atoms: P_1  and  O_10 
REMARK    4  A    between atoms: P_2  and  O_8 
REMARK    5  A    between atoms: P_2  and  O_11 
REMARK    6  A    between atoms: P_2  and  O_12 
REMARK    7  A    between atoms: O_4  and  C_15 
REMARK    8  A    between atoms: O_5  and  C_16 
REMARK    9  A    between atoms: O_6  and  C_17 
REMARK   10  A    between atoms: O_7  and  C_19 
REMARK   11  A    between atoms: O_8  and  C_20 
REMARK   12  A    between atoms: C_15  and  C_19 
REMARK   13  A    between atoms: C_18  and  C_20 
ROOT
HETATM    1  O   UNK N   1      27.803  13.399 122.590  0.00  0.00    -0.341 OA
HETATM    2  C   UNK N   1      27.799  12.001 122.372  0.00  0.00     0.213 C 
HETATM    3  C   UNK N   1      28.991  11.445 123.180  0.00  0.00     0.214 C 
HETATM    4  C   UNK N   1      28.842  12.271 124.437  0.00  0.00     0.183 C 
HETATM    5  C   UNK N   1      28.443  13.633 123.840  0.00  0.00     0.181 C 
ENDROOT
BRANCH   2   6
HETATM    6  O   UNK N   1      26.569  11.498 122.853  0.00  0.00    -0.362 OA
HETATM    7  H   UNK N   1      26.100  12.225 123.339  0.00  0.00     0.213 HD
ENDBRANCH   2   6
BRANCH   2   8
HETATM    8  C   UNK N   1      27.903  11.701 120.865  0.00  0.00     0.251 C 
BRANCH   8   9
HETATM    9  O   UNK N   1      28.305  10.367 120.669  0.00  0.00    -0.292 OA
BRANCH   9  10
HETATM   10  P   UNK N   1      29.421  10.340 119.327  0.00  0.00     0.390 P 
HETATM   11  O   UNK N   1      29.631   8.844 118.970  0.00  0.00    -0.632 OA
BRANCH  10  12
HETATM   12  O   UNK N   1      30.970  10.987 119.774  0.00  0.00    -0.307 OA
HETATM   13  H   UNK N   1      31.219  11.587 119.025  0.00  0.00     0.222 HD
ENDBRANCH  10  12
BRANCH  10  14
HETATM   14  O   UNK N   1      28.756  11.120 117.924  0.00  0.00    -0.307 OA
HETATM   15  H   UNK N   1      29.379  10.893 117.189  0.00  0.00     0.222 HD
ENDBRANCH  10  14
ENDBRANCH   9  10
ENDBRANCH   8   9
ENDBRANCH   2   8
BRANCH   3  16
HETATM   16  O   UNK N   1      30.200  11.758 122.534  0.00  0.00    -0.387 OA
HETATM   17  H   UNK N   1      29.969  12.338 121.762  0.00  0.00     0.210 HD
ENDBRANCH   3  16
BRANCH   5  18
HETATM   18  C   UNK N   1      29.642  14.575 123.644  0.00  0.00     0.215 C 
BRANCH  18  19
HETATM   19  O   UNK N   1      30.670  14.163 124.520  0.00  0.00    -0.294 OA
BRANCH  19  20
HETATM   20  P   UNK N   1      32.234  14.493 123.816  0.00  0.00     0.390 P 
HETATM   21  O   UNK N   1      32.329  16.024 123.573  0.00  0.00    -0.632 OA
BRANCH  20  22
HETATM   22  O   UNK N   1      32.444  13.666 122.303  0.00  0.00    -0.307 OA
HETATM   23  H   UNK N   1      31.862  12.866 122.370  0.00  0.00     0.222 HD
ENDBRANCH  20  22
BRANCH  20  24
HETATM   24  O   UNK N   1      33.479  14.057 124.945  0.00  0.00    -0.307 OA
HETATM   25  H   UNK N   1      34.082  13.455 124.442  0.00  0.00     0.222 HD
ENDBRANCH  20  24
ENDBRANCH  19  20
ENDBRANCH  18  19
ENDBRANCH   5  18
BRANCH   4  26
HETATM   26  O   UNK N   1      27.767  11.781 125.201  0.00  0.00    -0.390 OA
HETATM   27  H   UNK N   1      27.280  12.574 125.548  0.00  0.00     0.210 HD
ENDBRANCH   4  26
TORSDOF 13
ENDMDL
MODEL 9
REMARK VINA RESULT:      -6.1      2.640      5.278
REMARK  13 active torsions:
REMARK  status: ('A' for Active; 'I' for Inactive)
REMARK    1  A    between atoms: P_1  and  O_7 
REMARK    2  A    between atoms: P_1  and  O_9 
REMARK    3  A    between atoms: P_1  and  O_10 
REMARK    4  A    between atoms: P_2  and  O_8 
REMARK    5  A    between atoms: P_2  and  O_11 
REMARK    6  A    between atoms: P_2  and  O_12 
REMARK    7  A    between atoms: O_4  and  C_15 
REMARK    8  A    between atoms: O_5  and  C_16 
REMARK    9  A    between atoms: O_6  and  C_17 
REMARK   10  A    between atoms: O_7  and  C_19 
REMARK   11  A    between atoms: O_8  and  C_20 
REMARK   12  A    between atoms: C_15  and  C_19 
REMARK   13  A    between atoms: C_18  and  C_20 
ROOT
HETATM    1  O   UNK N   1      29.640  13.031 121.313  0.00  0.00    -0.341 OA
HETATM    2  C   UNK N   1      29.613  11.628 121.130  0.00  0.00     0.213 C 
HETATM    3  C   UNK N   1      28.286  11.325 120.401  0.00  0.00     0.214 C 
HETATM    4  C   UNK N   1      28.279  12.473 119.417  0.00  0.00     0.183 C 
HETATM    5  C   UNK N   1      28.827  13.610 120.298  0.00  0.00     0.181 C 
ENDROOT
BRANCH   2   6
HETATM    6  O   UNK N   1      30.730  11.280 120.338  0.00  0.00    -0.362 OA
HETATM    7  H   UNK N   1      31.545  11.657 120.760  0.00  0.00     0.213 HD
ENDBRANCH   2   6
BRANCH   2   8
HETATM    8  C   UNK N   1      29.727  10.915 122.490  0.00  0.00     0.251 C 
BRANCH   8   9
HETATM    9  O   UNK N   1      28.605  11.214 123.283  0.00  0.00    -0.292 OA
BRANCH   9  10
HETATM   10  P   UNK N   1      29.181  11.904 124.781  0.00  0.00     0.390 P 
HETATM   11  O   UNK N   1      30.515  11.180 125.104  0.00  0.00    -0.632 OA
BRANCH  10  12
HETATM   12  O   UNK N   1      28.087  11.584 126.092  0.00  0.00    -0.307 OA
HETATM   13  H   UNK N   1      28.117  10.601 126.212  0.00  0.00     0.222 HD
ENDBRANCH  10  12
BRANCH  10  14
HETATM   14  O   UNK N   1      29.537  13.596 124.611  0.00  0.00    -0.307 OA
HETATM   15  H   UNK N   1      29.857  13.878 125.505  0.00  0.00     0.222 HD
ENDBRANCH  10  14
ENDBRANCH   9  10
ENDBRANCH   8   9
ENDBRANCH   2   8
BRANCH   3  16
HETATM   16  O   UNK N   1      27.206  11.445 121.293  0.00  0.00    -0.387 OA
HETATM   17  H   UNK N   1      27.492  11.022 122.145  0.00  0.00     0.210 HD
ENDBRANCH   3  16
BRANCH   5  18
HETATM   18  C   UNK N   1      27.718  14.459 120.937  0.00  0.00     0.215 C 
BRANCH  18  19
HETATM   19  O   UNK N   1      27.801  14.307 122.339  0.00  0.00    -0.294 OA
BRANCH  19  20
HETATM   20  P   UNK N   1      26.214  14.429 123.056  0.00  0.00     0.390 P 
HETATM   21  O   UNK N   1      26.390  14.408 124.599  0.00  0.00    -0.632 OA
BRANCH  20  22
HETATM   22  O   UNK N   1      25.192  13.106 122.585  0.00  0.00    -0.307 OA
HETATM   23  H   UNK N   1      24.495  13.062 123.289  0.00  0.00     0.222 HD
ENDBRANCH  20  22
BRANCH  20  24
HETATM   24  O   UNK N   1      25.501  15.954 122.626  0.00  0.00    -0.307 OA
HETATM   25  H   UNK N   1      26.266  16.573 122.521  0.00  0.00     0.222 HD
ENDBRANCH  20  24
ENDBRANCH  19  20
ENDBRANCH  18  19
ENDBRANCH   5  18
BRANCH   4  26
HETATM   26  O   UNK N   1      29.200  12.217 118.384  0.00  0.00    -0.390 OA
HETATM   27  H   UNK N   1      30.093  12.140 118.813  0.00  0.00     0.210 HD
ENDBRANCH   4  26
TORSDOF 13
ENDMDL
