REMARK  Name = 185698
REMARK  6 active torsions:
REMARK  status: ('A' for Active; 'I' for Inactive)
REMARK    1  A    between atoms: O_2  and  C_7
REMARK    2  A    between atoms: O_3  and  C_8
REMARK    3  A    between atoms: O_4  and  C_10
REMARK    4  A    between atoms: O_5  and  C_11
REMARK    5  A    between atoms: O_6  and  C_12
REMARK    6  A    between atoms: C_9  and  C_12
REMARK                            x       y       z     vdW  Elec       q    Type
REMARK                         _______ _______ _______ _____ _____    ______ ____
ROOT
ATOM      1  O   UNL     1      -0.805   1.075   0.411  0.00  0.00    +0.000 OA
ATOM      7  C   UNL     1       0.050  -1.193   0.082  0.00  0.00    +0.000 C 
ATOM      8  C   UNL     1       1.367  -0.608  -0.432  0.00  0.00    +0.000 C 
ATOM      9  C   UNL     1      -1.096  -0.202  -0.161  0.00  0.00    +0.000 C 
ATOM     10  C   UNL     1       1.597   0.793   0.137  0.00  0.00    +0.000 C 
ATOM     11  C   UNL     1       0.383   1.689  -0.102  0.00  0.00    +0.000 C 
ENDROOT
BRANCH   7   2
ATOM      2  O   UNL     1      -0.236  -2.406  -0.609  0.00  0.00    +0.000 OA
ATOM     13  H   UNL     1      -0.929  -2.874  -0.115  0.00  0.00    +0.000 HD
ENDBRANCH   7   2
BRANCH   8   3
ATOM      3  O   UNL     1       2.460  -1.442  -0.058  0.00  0.00    +0.000 OA
ATOM     14  H   UNL     1       2.399  -1.613   0.897  0.00  0.00    +0.000 HD
ENDBRANCH   8   3
BRANCH  10   4
ATOM      4  O   UNL     1       1.810   0.717   1.547  0.00  0.00    +0.000 OA
ATOM     15  H   UNL     1       2.656   0.260   1.690  0.00  0.00    +0.000 HD
ENDBRANCH  10   4
BRANCH  11   5
ATOM      5  O   UNL     1       0.279   2.000  -1.487  0.00  0.00    +0.000 OA
ATOM     16  H   UNL     1      -0.181   2.853  -1.555  0.00  0.00    +0.000 HD
ENDBRANCH  11   5
BRANCH   9  12
ATOM     12  C   UNL     1      -2.401  -0.693   0.462  0.00  0.00    +0.000 C 
BRANCH  12   6
ATOM      6  O   UNL     1      -3.409   0.269   0.211  0.00  0.00    +0.000 OA
ATOM     17  H   UNL     1      -4.227  -0.059   0.621  0.00  0.00    +0.000 HD
ENDBRANCH  12   6
ENDBRANCH   9  12
TORSDOF 6
