REMARK  Name = 18950
REMARK  6 active torsions:
REMARK  status: ('A' for Active; 'I' for Inactive)
REMARK    1  A    between atoms: O_2  and  C_7
REMARK    2  A    between atoms: O_3  and  C_8
REMARK    3  A    between atoms: O_4  and  C_10
REMARK    4  A    between atoms: O_5  and  C_11
REMARK    5  A    between atoms: O_6  and  C_12
REMARK    6  A    between atoms: C_9  and  C_12
REMARK                            x       y       z     vdW  Elec       q    Type
REMARK                         _______ _______ _______ _____ _____    ______ ____
ROOT
ATOM      1  O   UNL     1      -0.672   1.127   0.082  0.00  0.00    +0.000 OA
ATOM      7  C   UNL     1      -0.141  -1.257   0.149  0.00  0.00    +0.000 C 
ATOM      8  C   UNL     1       1.228  -0.954  -0.463  0.00  0.00    +0.000 C 
ATOM      9  C   UNL     1      -1.158  -0.178  -0.248  0.00  0.00    +0.000 C 
ATOM     10  C   UNL     1       1.651   0.485  -0.165  0.00  0.00    +0.000 C 
ATOM     11  C   UNL     1       0.545   1.449  -0.595  0.00  0.00    +0.000 C 
ENDROOT
BRANCH   7   2
ATOM      2  O   UNL     1      -0.598  -2.524  -0.318  0.00  0.00    +0.000 OA
ATOM     13  H   UNL     1      -0.681  -2.475  -1.285  0.00  0.00    +0.000 HD
ENDBRANCH   7   2
BRANCH   8   3
ATOM      3  O   UNL     1       2.189  -1.865   0.063  0.00  0.00    +0.000 OA
ATOM     14  H   UNL     1       1.873  -2.764  -0.129  0.00  0.00    +0.000 HD
ENDBRANCH   8   3
BRANCH  10   4
ATOM      4  O   UNL     1       1.860   0.642   1.242  0.00  0.00    +0.000 OA
ATOM     15  H   UNL     1       0.995   0.618   1.685  0.00  0.00    +0.000 HD
ENDBRANCH  10   4
BRANCH  11   5
ATOM      5  O   UNL     1       0.954   2.779  -0.288  0.00  0.00    +0.000 OA
ATOM     16  H   UNL     1       1.461   2.756   0.541  0.00  0.00    +0.000 HD
ENDBRANCH  11   5
BRANCH   9  12
ATOM     12  C   UNL     1      -2.489  -0.368   0.472  0.00  0.00    +0.000 C 
BRANCH  12   6
ATOM      6  O   UNL     1      -3.371   0.663   0.069  0.00  0.00    +0.000 OA
ATOM     17  H   UNL     1      -2.953   1.512   0.290  0.00  0.00    +0.000 HD
ENDBRANCH  12   6
ENDBRANCH   9  12
TORSDOF 6
