REMARK  Name = 718
REMARK  13 active torsions:
REMARK  status: ('A' for Active; 'I' for Inactive)
REMARK    1  A    between atoms: P_1  and  O_7
REMARK    2  A    between atoms: P_1  and  O_9
REMARK    3  A    between atoms: P_1  and  O_10
REMARK    4  A    between atoms: P_2  and  O_8
REMARK    5  A    between atoms: P_2  and  O_11
REMARK    6  A    between atoms: P_2  and  O_12
REMARK    7  A    between atoms: O_4  and  C_15
REMARK    8  A    between atoms: O_5  and  C_16
REMARK    9  A    between atoms: O_6  and  C_17
REMARK   10  A    between atoms: O_7  and  C_19
REMARK   11  A    between atoms: O_8  and  C_20
REMARK   12  A    between atoms: C_15  and  C_19
REMARK   13  A    between atoms: C_18  and  C_20
REMARK                            x       y       z     vdW  Elec       q    Type
REMARK                         _______ _______ _______ _____ _____    ______ ____
ROOT
ATOM      3  O   UNL     1      -0.006   0.951  -1.371  0.00  0.00    +0.000 OA
ATOM     15  C   UNL     1      -1.032   1.008  -0.367  0.00  0.00    +0.000 C 
ATOM     16  C   UNL     1      -0.321   0.738   0.961  0.00  0.00    +0.000 C 
ATOM     17  C   UNL     1       1.037   1.377   0.737  0.00  0.00    +0.000 C 
ATOM     18  C   UNL     1       1.275   1.201  -0.762  0.00  0.00    +0.000 C 
ENDROOT
BRANCH  15   4
ATOM      4  O   UNL     1      -1.592   2.323  -0.312  0.00  0.00    +0.000 OA
ATOM     21  H   UNL     1      -1.035   2.883   0.253  0.00  0.00    +0.000 HD
ENDBRANCH  15   4
BRANCH  16   5
ATOM      5  O   UNL     1      -0.127  -0.652   1.187  0.00  0.00    +0.000 OA
ATOM     22  H   UNL     1       0.368  -0.747   2.019  0.00  0.00    +0.000 HD
ENDBRANCH  16   5
BRANCH  17   6
ATOM      6  O   UNL     1       0.946   2.767   1.042  0.00  0.00    +0.000 OA
ATOM     23  H   UNL     1       0.759   2.844   1.993  0.00  0.00    +0.000 HD
ENDBRANCH  17   6
BRANCH  15  19
ATOM     19  C   UNL     1      -2.127   0.010  -0.723  0.00  0.00    +0.000 C 
BRANCH  19   7
ATOM      7  O   UNL     1      -3.109   0.029   0.298  0.00  0.00    +0.000 OA
BRANCH   7   1
ATOM      1  P   UNL     1      -4.390  -0.952   0.157  0.00  0.00    +0.000 P 
ATOM     13  O   UNL     1      -5.380  -0.868   1.281  0.00  0.00    +0.000 OA
BRANCH   1   9
ATOM      9  O   UNL     1      -3.732  -2.410  -0.078  0.00  0.00    +0.000 OA
ATOM     24  H   UNL     1      -4.321  -3.194  -0.126  0.00  0.00    +0.000 HD
ENDBRANCH   1   9
BRANCH   1  10
ATOM     10  O   UNL     1      -4.978  -0.569  -1.301  0.00  0.00    +0.000 OA
ATOM     25  H   UNL     1      -5.825  -0.969  -1.591  0.00  0.00    +0.000 HD
ENDBRANCH   1  10
ENDBRANCH   7   1
ENDBRANCH  19   7
ENDBRANCH  15  19
BRANCH  18  20
ATOM     20  C   UNL     1       2.178   0.019  -1.087  0.00  0.00    +0.000 C 
BRANCH  20   8
ATOM      8  O   UNL     1       3.438   0.227  -0.473  0.00  0.00    +0.000 OA
BRANCH   8   2
ATOM      2  P   UNL     1       4.296  -1.067  -0.013  0.00  0.00    +0.000 P 
ATOM     14  O   UNL     1       4.659  -2.012  -1.121  0.00  0.00    +0.000 OA
BRANCH   2  11
ATOM     11  O   UNL     1       3.413  -1.708   1.181  0.00  0.00    +0.000 OA
ATOM     26  H   UNL     1       3.700  -2.558   1.579  0.00  0.00    +0.000 HD
ENDBRANCH   2  11
BRANCH   2  12
ATOM     12  O   UNL     1       5.552  -0.410   0.764  0.00  0.00    +0.000 OA
ATOM     27  H   UNL     1       6.280  -0.994   1.067  0.00  0.00    +0.000 HD
ENDBRANCH   2  12
ENDBRANCH   8   2
ENDBRANCH  20   8
ENDBRANCH  18  20
TORSDOF 13
