REMARK  Name = 5793
REMARK  6 active torsions:
REMARK  status: ('A' for Active; 'I' for Inactive)
REMARK    1  A    between atoms: O_2  and  C_7
REMARK    2  A    between atoms: O_3  and  C_8
REMARK    3  A    between atoms: O_4  and  C_10
REMARK    4  A    between atoms: O_5  and  C_11
REMARK    5  A    between atoms: O_6  and  C_12
REMARK    6  A    between atoms: C_9  and  C_12
REMARK                            x       y       z     vdW  Elec       q    Type
REMARK                         _______ _______ _______ _____ _____    ______ ____
ROOT
ATOM      1  O   UNL     1      -0.668   1.159   0.257  0.00  0.00    +0.000 OA
ATOM      7  C   UNL     1      -0.373  -1.247   0.230  0.00  0.00    +0.000 C 
ATOM      8  C   UNL     1       1.086  -1.071  -0.194  0.00  0.00    +0.000 C 
ATOM      9  C   UNL     1      -1.221  -0.062  -0.237  0.00  0.00    +0.000 C 
ATOM     10  C   UNL     1       1.608   0.315   0.184  0.00  0.00    +0.000 C 
ATOM     11  C   UNL     1       0.639   1.413  -0.253  0.00  0.00    +0.000 C 
ENDROOT
BRANCH   7   2
ATOM      2  O   UNL     1      -0.887  -2.448  -0.339  0.00  0.00    +0.000 OA
ATOM     13  H   UNL     1      -0.851  -2.361  -1.307  0.00  0.00    +0.000 HD
ENDBRANCH   7   2
BRANCH   8   3
ATOM      3  O   UNL     1       1.862  -2.069   0.470  0.00  0.00    +0.000 OA
ATOM     14  H   UNL     1       1.497  -2.936   0.220  0.00  0.00    +0.000 HD
ENDBRANCH   8   3
BRANCH  10   4
ATOM      4  O   UNL     1       2.861   0.541  -0.462  0.00  0.00    +0.000 OA
ATOM     15  H   UNL     1       2.716   0.499  -1.423  0.00  0.00    +0.000 HD
ENDBRANCH  10   4
BRANCH  11   5
ATOM      5  O   UNL     1       1.122   2.655   0.257  0.00  0.00    +0.000 OA
ATOM     16  H   UNL     1       1.488   2.503   1.145  0.00  0.00    +0.000 HD
ENDBRANCH  11   5
BRANCH   9  12
ATOM     12  C   UNL     1      -2.655  -0.158   0.274  0.00  0.00    +0.000 C 
BRANCH  12   6
ATOM      6  O   UNL     1      -3.374   0.972  -0.186  0.00  0.00    +0.000 OA
ATOM     17  H   UNL     1      -2.919   1.765   0.144  0.00  0.00    +0.000 HD
ENDBRANCH  12   6
ENDBRANCH   9  12
TORSDOF 6
