MODEL 1
REMARK VINA RESULT:      -5.7      0.000      0.000
REMARK  6 active torsions:
REMARK  status: ('A' for Active; 'I' for Inactive)
REMARK    1  A    between atoms: O_2  and  C_7 
REMARK    2  A    between atoms: O_3  and  C_8 
REMARK    3  A    between atoms: O_4  and  C_10 
REMARK    4  A    between atoms: O_5  and  C_11 
REMARK    5  A    between atoms: O_6  and  C_12 
REMARK    6  A    between atoms: C_9  and  C_12 
ROOT
HETATM    1  O   UNK N   1      29.490  14.453 124.353  0.00  0.00    -0.349 OA
HETATM    2  C   UNK N   1      28.952  12.386 125.562  0.00  0.00     0.180 C 
HETATM    3  C   UNK N   1      29.285  11.574 124.297  0.00  0.00     0.183 C 
HETATM    4  C   UNK N   1      28.499  13.813 125.152  0.00  0.00     0.179 C 
HETATM    5  C   UNK N   1      30.296  12.345 123.427  0.00  0.00     0.204 C 
HETATM    6  C   UNK N   1      29.737  13.749 123.144  0.00  0.00     0.288 C 
ENDROOT
BRANCH   4   7
HETATM    7  C   UNK N   1      28.262  14.682 126.393  0.00  0.00     0.198 C 
BRANCH   7   8
HETATM    8  O   UNK N   1      27.181  14.173 127.123  0.00  0.00    -0.398 OA
HETATM    9  H   UNK N   1      27.009  14.826 127.851  0.00  0.00     0.209 HD
ENDBRANCH   7   8
ENDBRANCH   4   7
BRANCH   2  10
HETATM   10  O   UNK N   1      27.933  11.720 126.268  0.00  0.00    -0.390 OA
HETATM   11  H   UNK N   1      27.709  12.276 127.058  0.00  0.00     0.210 HD
ENDBRANCH   2  10
BRANCH   6  12
HETATM   12  O   UNK N   1      28.577  13.678 122.349  0.00  0.00    -0.369 OA
HETATM   13  H   UNK N   1      28.808  14.067 121.465  0.00  0.00     0.212 HD
ENDBRANCH   6  12
BRANCH   3  14
HETATM   14  O   UNK N   1      29.756  10.285 124.610  0.00  0.00    -0.390 OA
HETATM   15  H   UNK N   1      28.977   9.727 124.869  0.00  0.00     0.210 HD
ENDBRANCH   3  14
BRANCH   5  16
HETATM   16  O   UNK N   1      31.524  12.480 124.097  0.00  0.00    -0.388 OA
HETATM   17  H   UNK N   1      31.321  12.555 125.065  0.00  0.00     0.210 HD
ENDBRANCH   5  16
TORSDOF 6
ENDMDL
MODEL 2
REMARK VINA RESULT:      -5.5      1.228      3.547
REMARK  6 active torsions:
REMARK  status: ('A' for Active; 'I' for Inactive)
REMARK    1  A    between atoms: O_2  and  C_7 
REMARK    2  A    between atoms: O_3  and  C_8 
REMARK    3  A    between atoms: O_4  and  C_10 
REMARK    4  A    between atoms: O_5  and  C_11 
REMARK    5  A    between atoms: O_6  and  C_12 
REMARK    6  A    between atoms: C_9  and  C_12 
ROOT
HETATM    1  O   UNK N   1      28.979  13.595 123.460  0.00  0.00    -0.349 OA
HETATM    2  C   UNK N   1      28.340  12.643 125.630  0.00  0.00     0.180 C 
HETATM    3  C   UNK N   1      28.223  14.067 126.205  0.00  0.00     0.183 C 
HETATM    4  C   UNK N   1      29.354  12.647 124.454  0.00  0.00     0.179 C 
HETATM    5  C   UNK N   1      27.899  15.065 125.079  0.00  0.00     0.204 C 
HETATM    6  C   UNK N   1      28.954  14.921 123.969  0.00  0.00     0.288 C 
ENDROOT
BRANCH   4   7
HETATM    7  C   UNK N   1      29.414  11.267 123.789  0.00  0.00     0.198 C 
BRANCH   7   8
HETATM    8  O   UNK N   1      30.047  10.358 124.647  0.00  0.00    -0.398 OA
HETATM    9  H   UNK N   1      29.714  10.564 125.559  0.00  0.00     0.209 HD
ENDBRANCH   7   8
ENDBRANCH   4   7
BRANCH   2  10
HETATM   10  O   UNK N   1      28.764  11.777 126.654  0.00  0.00    -0.390 OA
HETATM   11  H   UNK N   1      29.638  11.398 126.379  0.00  0.00     0.210 HD
ENDBRANCH   2  10
BRANCH   6  12
HETATM   12  O   UNK N   1      30.225  15.315 124.428  0.00  0.00    -0.369 OA
HETATM   13  H   UNK N   1      30.727  14.485 124.639  0.00  0.00     0.212 HD
ENDBRANCH   6  12
BRANCH   3  14
HETATM   14  O   UNK N   1      27.274  14.136 127.242  0.00  0.00    -0.390 OA
HETATM   15  H   UNK N   1      26.481  14.626 126.902  0.00  0.00     0.210 HD
ENDBRANCH   3  14
BRANCH   5  16
HETATM   16  O   UNK N   1      26.633  14.799 124.529  0.00  0.00    -0.388 OA
HETATM   17  H   UNK N   1      25.981  14.818 125.277  0.00  0.00     0.210 HD
ENDBRANCH   5  16
TORSDOF 6
ENDMDL
MODEL 3
REMARK VINA RESULT:      -5.4      6.120      8.171
REMARK  6 active torsions:
REMARK  status: ('A' for Active; 'I' for Inactive)
REMARK    1  A    between atoms: O_2  and  C_7 
REMARK    2  A    between atoms: O_3  and  C_8 
REMARK    3  A    between atoms: O_4  and  C_10 
REMARK    4  A    between atoms: O_5  and  C_11 
REMARK    5  A    between atoms: O_6  and  C_12 
REMARK    6  A    between atoms: C_9  and  C_12 
ROOT
HETATM    1  O   UNK N   1      31.238   6.839 118.645  0.00  0.00    -0.349 OA
HETATM    2  C   UNK N   1      30.407   7.074 120.942  0.00  0.00     0.180 C 
HETATM    3  C   UNK N   1      30.697   8.585 120.879  0.00  0.00     0.183 C 
HETATM    4  C   UNK N   1      31.359   6.328 119.968  0.00  0.00     0.179 C 
HETATM    5  C   UNK N   1      30.636   9.073 119.420  0.00  0.00     0.204 C 
HETATM    6  C   UNK N   1      31.588   8.214 118.570  0.00  0.00     0.288 C 
ENDROOT
BRANCH   4   7
HETATM    7  C   UNK N   1      31.024   4.832 119.926  0.00  0.00     0.198 C 
BRANCH   7   8
HETATM    8  O   UNK N   1      31.433   4.225 121.121  0.00  0.00    -0.398 OA
HETATM    9  H   UNK N   1      30.630   3.773 121.489  0.00  0.00     0.209 HD
ENDBRANCH   7   8
ENDBRANCH   4   7
BRANCH   2  10
HETATM   10  O   UNK N   1      30.598   6.633 122.265  0.00  0.00    -0.390 OA
HETATM   11  H   UNK N   1      30.991   5.724 122.220  0.00  0.00     0.210 HD
ENDBRANCH   2  10
BRANCH   6  12
HETATM   12  O   UNK N   1      32.928   8.421 118.950  0.00  0.00    -0.369 OA
HETATM   13  H   UNK N   1      33.473   7.747 118.466  0.00  0.00     0.212 HD
ENDBRANCH   6  12
BRANCH   3  14
HETATM   14  O   UNK N   1      29.825   9.320 121.703  0.00  0.00    -0.390 OA
HETATM   15  H   UNK N   1      30.091  10.276 121.659  0.00  0.00     0.210 HD
ENDBRANCH   3  14
BRANCH   5  16
HETATM   16  O   UNK N   1      29.334   8.938 118.906  0.00  0.00    -0.388 OA
HETATM   17  H   UNK N   1      28.869   9.800 119.065  0.00  0.00     0.210 HD
ENDBRANCH   5  16
TORSDOF 6
ENDMDL
MODEL 4
REMARK VINA RESULT:      -5.3      6.155      7.910
REMARK  6 active torsions:
REMARK  status: ('A' for Active; 'I' for Inactive)
REMARK    1  A    between atoms: O_2  and  C_7 
REMARK    2  A    between atoms: O_3  and  C_8 
REMARK    3  A    between atoms: O_4  and  C_10 
REMARK    4  A    between atoms: O_5  and  C_11 
REMARK    5  A    between atoms: O_6  and  C_12 
REMARK    6  A    between atoms: C_9  and  C_12 
ROOT
HETATM    1  O   UNK N   1      31.045   7.107 118.548  0.00  0.00    -0.349 OA
HETATM    2  C   UNK N   1      31.013   8.545 120.536  0.00  0.00     0.180 C 
HETATM    3  C   UNK N   1      30.270   7.439 121.308  0.00  0.00     0.183 C 
HETATM    4  C   UNK N   1      30.706   8.407 119.021  0.00  0.00     0.179 C 
HETATM    5  C   UNK N   1      30.604   6.061 120.707  0.00  0.00     0.204 C 
HETATM    6  C   UNK N   1      30.298   6.090 119.200  0.00  0.00     0.288 C 
ENDROOT
BRANCH   4   7
HETATM    7  C   UNK N   1      31.516   9.428 118.211  0.00  0.00     0.198 C 
BRANCH   7   8
HETATM    8  O   UNK N   1      32.709   9.722 118.885  0.00  0.00    -0.398 OA
HETATM    9  H   UNK N   1      32.626   9.308 119.783  0.00  0.00     0.209 HD
ENDBRANCH   7   8
ENDBRANCH   4   7
BRANCH   2  10
HETATM   10  O   UNK N   1      30.588   9.795 121.022  0.00  0.00    -0.390 OA
HETATM   11  H   UNK N   1      29.694   9.976 120.633  0.00  0.00     0.210 HD
ENDBRANCH   2  10
BRANCH   6  12
HETATM   12  O   UNK N   1      28.918   6.245 118.969  0.00  0.00    -0.369 OA
HETATM   13  H   UNK N   1      28.478   5.410 119.279  0.00  0.00     0.212 HD
ENDBRANCH   6  12
BRANCH   3  14
HETATM   14  O   UNK N   1      30.554   7.480 122.686  0.00  0.00    -0.390 OA
HETATM   15  H   UNK N   1      31.495   7.192 122.816  0.00  0.00     0.210 HD
ENDBRANCH   3  14
BRANCH   5  16
HETATM   16  O   UNK N   1      31.967   5.762 120.879  0.00  0.00    -0.388 OA
HETATM   17  H   UNK N   1      32.326   5.519 119.987  0.00  0.00     0.210 HD
ENDBRANCH   5  16
TORSDOF 6
ENDMDL
MODEL 5
REMARK VINA RESULT:      -5.3      1.494      1.942
REMARK  6 active torsions:
REMARK  status: ('A' for Active; 'I' for Inactive)
REMARK    1  A    between atoms: O_2  and  C_7 
REMARK    2  A    between atoms: O_3  and  C_8 
REMARK    3  A    between atoms: O_4  and  C_10 
REMARK    4  A    between atoms: O_5  and  C_11 
REMARK    5  A    between atoms: O_6  and  C_12 
REMARK    6  A    between atoms: C_9  and  C_12 
ROOT
HETATM    1  O   UNK N   1      28.390  13.816 123.332  0.00  0.00    -0.349 OA
HETATM    2  C   UNK N   1      28.439  13.641 125.780  0.00  0.00     0.180 C 
HETATM    3  C   UNK N   1      28.528  12.108 125.654  0.00  0.00     0.183 C 
HETATM    4  C   UNK N   1      27.726  14.216 124.526  0.00  0.00     0.179 C 
HETATM    5  C   UNK N   1      29.177  11.726 124.312  0.00  0.00     0.204 C 
HETATM    6  C   UNK N   1      28.399  12.405 123.173  0.00  0.00     0.288 C 
ENDROOT
BRANCH   4   7
HETATM    7  C   UNK N   1      27.717  15.750 124.568  0.00  0.00     0.198 C 
BRANCH   7   8
HETATM    8  O   UNK N   1      26.719  16.190 125.446  0.00  0.00    -0.398 OA
HETATM    9  H   UNK N   1      27.102  16.966 125.932  0.00  0.00     0.209 HD
ENDBRANCH   7   8
ENDBRANCH   4   7
BRANCH   2  10
HETATM   10  O   UNK N   1      27.726  13.956 126.951  0.00  0.00    -0.390 OA
HETATM   11  H   UNK N   1      28.384  14.275 127.620  0.00  0.00     0.210 HD
ENDBRANCH   2  10
BRANCH   6  12
HETATM   12  O   UNK N   1      27.089  11.894 123.084  0.00  0.00    -0.369 OA
HETATM   13  H   UNK N   1      26.879  11.804 122.117  0.00  0.00     0.212 HD
ENDBRANCH   6  12
BRANCH   3  14
HETATM   14  O   UNK N   1      29.215  11.533 126.740  0.00  0.00    -0.390 OA
HETATM   15  H   UNK N   1      28.716  11.748 127.570  0.00  0.00     0.210 HD
ENDBRANCH   3  14
BRANCH   5  16
HETATM   16  O   UNK N   1      30.512  12.165 124.264  0.00  0.00    -0.388 OA
HETATM   17  H   UNK N   1      30.997  11.552 123.653  0.00  0.00     0.210 HD
ENDBRANCH   5  16
TORSDOF 6
ENDMDL
MODEL 6
REMARK VINA RESULT:      -5.2     29.388     31.017
REMARK  6 active torsions:
REMARK  status: ('A' for Active; 'I' for Inactive)
REMARK    1  A    between atoms: O_2  and  C_7 
REMARK    2  A    between atoms: O_3  and  C_8 
REMARK    3  A    between atoms: O_4  and  C_10 
REMARK    4  A    between atoms: O_5  and  C_11 
REMARK    5  A    between atoms: O_6  and  C_12 
REMARK    6  A    between atoms: C_9  and  C_12 
ROOT
HETATM    1  O   UNK N   1      38.209  -3.372  98.818  0.00  0.00    -0.349 OA
HETATM    2  C   UNK N   1      36.268  -2.535 100.065  0.00  0.00     0.180 C 
HETATM    3  C   UNK N   1      35.477  -2.444  98.747  0.00  0.00     0.183 C 
HETATM    4  C   UNK N   1      37.784  -2.395  99.764  0.00  0.00     0.179 C 
HETATM    5  C   UNK N   1      36.028  -3.460  97.730  0.00  0.00     0.204 C 
HETATM    6  C   UNK N   1      37.541  -3.234  97.572  0.00  0.00     0.288 C 
ENDROOT
BRANCH   4   7
HETATM    7  C   UNK N   1      38.609  -2.590 101.042  0.00  0.00     0.198 C 
BRANCH   7   8
HETATM    8  O   UNK N   1      38.539  -1.432 101.828  0.00  0.00    -0.398 OA
HETATM    9  H   UNK N   1      38.362  -0.685 101.199  0.00  0.00     0.209 HD
ENDBRANCH   7   8
ENDBRANCH   4   7
BRANCH   2  10
HETATM   10  O   UNK N   1      35.831  -1.511 100.924  0.00  0.00    -0.390 OA
HETATM   11  H   UNK N   1      35.904  -1.852 101.853  0.00  0.00     0.210 HD
ENDBRANCH   2  10
BRANCH   6  12
HETATM   12  O   UNK N   1      37.804  -1.980  96.988  0.00  0.00    -0.369 OA
HETATM   13  H   UNK N   1      38.726  -2.020  96.620  0.00  0.00     0.212 HD
ENDBRANCH   6  12
BRANCH   3  14
HETATM   14  O   UNK N   1      34.095  -2.619  98.952  0.00  0.00    -0.390 OA
HETATM   15  H   UNK N   1      33.623  -1.845  98.549  0.00  0.00     0.210 HD
ENDBRANCH   3  14
BRANCH   5  16
HETATM   16  O   UNK N   1      35.818  -4.776  98.180  0.00  0.00    -0.388 OA
HETATM   17  H   UNK N   1      36.505  -4.959  98.871  0.00  0.00     0.210 HD
ENDBRANCH   5  16
TORSDOF 6
ENDMDL
MODEL 7
REMARK VINA RESULT:      -5.2      2.076      4.251
REMARK  6 active torsions:
REMARK  status: ('A' for Active; 'I' for Inactive)
REMARK    1  A    between atoms: O_2  and  C_7 
REMARK    2  A    between atoms: O_3  and  C_8 
REMARK    3  A    between atoms: O_4  and  C_10 
REMARK    4  A    between atoms: O_5  and  C_11 
REMARK    5  A    between atoms: O_6  and  C_12 
REMARK    6  A    between atoms: C_9  and  C_12 
ROOT
HETATM    1  O   UNK N   1      28.350  10.352 122.290  0.00  0.00    -0.349 OA
HETATM    2  C   UNK N   1      30.080  11.191 123.817  0.00  0.00     0.180 C 
HETATM    3  C   UNK N   1      29.489  12.607 123.686  0.00  0.00     0.183 C 
HETATM    4  C   UNK N   1      29.753  10.379 122.534  0.00  0.00     0.179 C 
HETATM    5  C   UNK N   1      27.991  12.524 123.341  0.00  0.00     0.204 C 
HETATM    6  C   UNK N   1      27.819  11.653 122.085  0.00  0.00     0.288 C 
ENDROOT
BRANCH   4   7
HETATM    7  C   UNK N   1      30.234   8.929 122.676  0.00  0.00     0.198 C 
BRANCH   7   8
HETATM    8  O   UNK N   1      30.652   8.700 123.993  0.00  0.00    -0.398 OA
HETATM    9  H   UNK N   1      30.715   7.715 124.095  0.00  0.00     0.209 HD
ENDBRANCH   7   8
ENDBRANCH   4   7
BRANCH   2  10
HETATM   10  O   UNK N   1      31.470  11.298 124.002  0.00  0.00    -0.390 OA
HETATM   11  H   UNK N   1      31.721  12.240 123.820  0.00  0.00     0.210 HD
ENDBRANCH   2  10
BRANCH   6  12
HETATM   12  O   UNK N   1      28.401  12.270 120.961  0.00  0.00    -0.369 OA
HETATM   13  H   UNK N   1      29.385  12.166 121.051  0.00  0.00     0.212 HD
ENDBRANCH   6  12
BRANCH   3  14
HETATM   14  O   UNK N   1      29.707  13.375 124.846  0.00  0.00    -0.390 OA
HETATM   15  H   UNK N   1      30.626  13.747 124.802  0.00  0.00     0.210 HD
ENDBRANCH   3  14
BRANCH   5  16
HETATM   16  O   UNK N   1      27.271  11.934 124.395  0.00  0.00    -0.388 OA
HETATM   17  H   UNK N   1      26.719  12.649 124.805  0.00  0.00     0.210 HD
ENDBRANCH   5  16
TORSDOF 6
ENDMDL
MODEL 8
REMARK VINA RESULT:      -5.1     20.792     22.487
REMARK  6 active torsions:
REMARK  status: ('A' for Active; 'I' for Inactive)
REMARK    1  A    between atoms: O_2  and  C_7 
REMARK    2  A    between atoms: O_3  and  C_8 
REMARK    3  A    between atoms: O_4  and  C_10 
REMARK    4  A    between atoms: O_5  and  C_11 
REMARK    5  A    between atoms: O_6  and  C_12 
REMARK    6  A    between atoms: C_9  and  C_12 
ROOT
HETATM    1  O   UNK N   1      36.818  -7.310 118.231  0.00  0.00    -0.349 OA
HETATM    2  C   UNK N   1      35.378  -7.205 116.246  0.00  0.00     0.180 C 
HETATM    3  C   UNK N   1      35.248  -5.683 116.437  0.00  0.00     0.183 C 
HETATM    4  C   UNK N   1      35.661  -7.872 117.619  0.00  0.00     0.179 C 
HETATM    5  C   UNK N   1      36.483  -5.136 117.176  0.00  0.00     0.204 C 
HETATM    6  C   UNK N   1      36.665  -5.921 118.486  0.00  0.00     0.288 C 
ENDROOT
BRANCH   4   7
HETATM    7  C   UNK N   1      35.904  -9.377 117.449  0.00  0.00     0.198 C 
BRANCH   7   8
HETATM    8  O   UNK N   1      34.676 -10.050 117.417  0.00  0.00    -0.398 OA
HETATM    9  H   UNK N   1      34.030  -9.424 116.997  0.00  0.00     0.209 HD
ENDBRANCH   7   8
ENDBRANCH   4   7
BRANCH   2  10
HETATM   10  O   UNK N   1      34.182  -7.693 115.689  0.00  0.00    -0.390 OA
HETATM   11  H   UNK N   1      34.417  -8.468 115.117  0.00  0.00     0.210 HD
ENDBRANCH   2  10
BRANCH   6  12
HETATM   12  O   UNK N   1      35.596  -5.679 119.370  0.00  0.00    -0.369 OA
HETATM   13  H   UNK N   1      35.849  -4.892 119.921  0.00  0.00     0.212 HD
ENDBRANCH   6  12
BRANCH   3  14
HETATM   14  O   UNK N   1      35.044  -5.017 115.214  0.00  0.00    -0.390 OA
HETATM   15  H   UNK N   1      34.158  -4.570 115.249  0.00  0.00     0.210 HD
ENDBRANCH   3  14
BRANCH   5  16
HETATM   16  O   UNK N   1      37.640  -5.299 116.394  0.00  0.00    -0.388 OA
HETATM   17  H   UNK N   1      37.371  -5.176 115.447  0.00  0.00     0.210 HD
ENDBRANCH   5  16
TORSDOF 6
ENDMDL
MODEL 9
REMARK VINA RESULT:      -5.0     20.633     22.101
REMARK  6 active torsions:
REMARK  status: ('A' for Active; 'I' for Inactive)
REMARK    1  A    between atoms: O_2  and  C_7 
REMARK    2  A    between atoms: O_3  and  C_8 
REMARK    3  A    between atoms: O_4  and  C_10 
REMARK    4  A    between atoms: O_5  and  C_11 
REMARK    5  A    between atoms: O_6  and  C_12 
REMARK    6  A    between atoms: C_9  and  C_12 
ROOT
HETATM    1  O   UNK N   1      36.188  -7.331 117.621  0.00  0.00    -0.349 OA
HETATM    2  C   UNK N   1      35.916  -5.734 115.777  0.00  0.00     0.180 C 
HETATM    3  C   UNK N   1      36.520  -4.629 116.663  0.00  0.00     0.183 C 
HETATM    4  C   UNK N   1      35.255  -6.811 116.680  0.00  0.00     0.179 C 
HETATM    5  C   UNK N   1      37.456  -5.249 117.716  0.00  0.00     0.204 C 
HETATM    6  C   UNK N   1      36.682  -6.326 118.495  0.00  0.00     0.288 C 
ENDROOT
BRANCH   4   7
HETATM    7  C   UNK N   1      34.738  -7.981 115.834  0.00  0.00     0.198 C 
BRANCH   7   8
HETATM    8  O   UNK N   1      35.365  -7.969 114.582  0.00  0.00    -0.398 OA
HETATM    9  H   UNK N   1      34.934  -7.239 114.065  0.00  0.00     0.209 HD
ENDBRANCH   7   8
ENDBRANCH   4   7
BRANCH   2  10
HETATM   10  O   UNK N   1      34.969  -5.153 114.914  0.00  0.00    -0.390 OA
HETATM   11  H   UNK N   1      34.733  -5.834 114.232  0.00  0.00     0.210 HD
ENDBRANCH   2  10
BRANCH   6  12
HETATM   12  O   UNK N   1      35.642  -5.751 119.250  0.00  0.00    -0.369 OA
HETATM   13  H   UNK N   1      35.935  -4.834 119.494  0.00  0.00     0.212 HD
ENDBRANCH   6  12
BRANCH   3  14
HETATM   14  O   UNK N   1      37.183  -3.650 115.899  0.00  0.00    -0.390 OA
HETATM   15  H   UNK N   1      36.591  -2.855 115.835  0.00  0.00     0.210 HD
ENDBRANCH   3  14
BRANCH   5  16
HETATM   16  O   UNK N   1      38.564  -5.855 117.098  0.00  0.00    -0.388 OA
HETATM   17  H   UNK N   1      38.262  -6.738 116.761  0.00  0.00     0.210 HD
ENDBRANCH   5  16
TORSDOF 6
ENDMDL
