MODEL 1
REMARK VINA RESULT:      -6.0      0.000      0.000
REMARK  10 active torsions:
REMARK  status: ('A' for Active; 'I' for Inactive)
REMARK    1  A    between atoms: O_1  and  C_12 
REMARK    2  A    between atoms: O_2  and  C_13 
REMARK    3  A    between atoms: O_3  and  C_18 
REMARK    4  A    between atoms: O_4  and  C_19 
REMARK    5  A    between atoms: C_7  and  C_16 
REMARK    6  A    between atoms: C_8  and  C_17 
REMARK    7  A    between atoms: C_9  and  C_20 
REMARK    8  A    between atoms: C_9  and  C_21 
REMARK    9  A    between atoms: C_20  and  C_24 
REMARK   10  A    between atoms: C_21  and  C_25 
ROOT
HETATM    1  C   UNK N   1     -26.270  -5.638  56.668  0.00  0.00     0.165 C 
ENDROOT
BRANCH   1   2
HETATM    2  C   UNK N   1     -27.387  -5.780  55.675  0.00  0.00     0.156 C 
HETATM    3  O   UNK N   1     -28.203  -4.874  55.576  0.00  0.00    -0.293 OA
BRANCH   2   4
HETATM    4  C   UNK N   1     -27.490  -6.965  54.794  0.00  0.00     0.051 C 
HETATM    5  C   UNK N   1     -28.134  -8.069  55.211  0.00  0.00     0.015 C 
BRANCH   5   6
HETATM    6  C   UNK N   1     -28.291  -9.290  54.388  0.00  0.00    -0.033 A 
HETATM    7  C   UNK N   1     -27.996  -9.207  53.021  0.00  0.00     0.051 A 
HETATM    8  C   UNK N   1     -28.107 -10.335  52.188  0.00  0.00     0.102 A 
HETATM    9  C   UNK N   1     -28.558 -11.552  52.736  0.00  0.00     0.099 A 
HETATM   10  C   UNK N   1     -28.870 -11.631  54.099  0.00  0.00     0.040 A 
HETATM   11  C   UNK N   1     -28.726 -10.516  54.926  0.00  0.00     0.014 A 
BRANCH   8  12
HETATM   12  O   UNK N   1     -27.774 -10.282  50.868  0.00  0.00    -0.353 OA
HETATM   13  C   UNK N   1     -28.563  -9.734  49.876  0.00  0.00     0.210 C 
ENDBRANCH   8  12
BRANCH   9  14
HETATM   14  O   UNK N   1     -28.693 -12.654  51.968  0.00  0.00    -0.358 OA
HETATM   15  H   UNK N   1     -28.858 -13.530  52.345  0.00  0.00     0.218 HD
ENDBRANCH   9  14
ENDBRANCH   5   6
ENDBRANCH   2   4
ENDBRANCH   1   2
BRANCH   1  16
HETATM   16  C   UNK N   1     -26.701  -5.697  58.106  0.00  0.00     0.156 C 
HETATM   17  O   UNK N   1     -26.429  -4.779  58.866  0.00  0.00    -0.293 OA
BRANCH  16  18
HETATM   18  C   UNK N   1     -27.337  -6.942  58.609  0.00  0.00     0.051 C 
HETATM   19  C   UNK N   1     -26.612  -8.001  59.010  0.00  0.00     0.015 C 
BRANCH  19  20
HETATM   20  C   UNK N   1     -27.204  -9.319  59.384  0.00  0.00    -0.033 A 
HETATM   21  C   UNK N   1     -27.250  -9.651  60.745  0.00  0.00     0.051 A 
HETATM   22  C   UNK N   1     -27.734 -10.905  61.173  0.00  0.00     0.102 A 
HETATM   23  C   UNK N   1     -28.192 -11.824  60.218  0.00  0.00     0.099 A 
HETATM   24  C   UNK N   1     -28.163 -11.495  58.857  0.00  0.00     0.040 A 
HETATM   25  C   UNK N   1     -27.670 -10.257  58.438  0.00  0.00     0.014 A 
BRANCH  22  26
HETATM   26  O   UNK N   1     -27.755 -11.256  62.486  0.00  0.00    -0.353 OA
HETATM   27  C   UNK N   1     -28.659 -10.784  63.417  0.00  0.00     0.210 C 
ENDBRANCH  22  26
BRANCH  23  28
HETATM   28  O   UNK N   1     -28.651 -13.030  60.619  0.00  0.00    -0.358 OA
HETATM   29  H   UNK N   1     -28.254 -13.504  61.363  0.00  0.00     0.218 HD
ENDBRANCH  23  28
ENDBRANCH  19  20
ENDBRANCH  16  18
ENDBRANCH   1  16
TORSDOF 10
ENDMDL
MODEL 2
REMARK VINA RESULT:      -5.9      1.261      2.199
REMARK  10 active torsions:
REMARK  status: ('A' for Active; 'I' for Inactive)
REMARK    1  A    between atoms: O_1  and  C_12 
REMARK    2  A    between atoms: O_2  and  C_13 
REMARK    3  A    between atoms: O_3  and  C_18 
REMARK    4  A    between atoms: O_4  and  C_19 
REMARK    5  A    between atoms: C_7  and  C_16 
REMARK    6  A    between atoms: C_8  and  C_17 
REMARK    7  A    between atoms: C_9  and  C_20 
REMARK    8  A    between atoms: C_9  and  C_21 
REMARK    9  A    between atoms: C_20  and  C_24 
REMARK   10  A    between atoms: C_21  and  C_25 
ROOT
HETATM    1  C   UNK N   1     -26.105  -4.936  55.237  0.00  0.00     0.165 C 
ENDROOT
BRANCH   1   2
HETATM    2  C   UNK N   1     -27.432  -5.353  54.672  0.00  0.00     0.156 C 
HETATM    3  O   UNK N   1     -28.379  -4.585  54.768  0.00  0.00    -0.293 OA
BRANCH   2   4
HETATM    4  C   UNK N   1     -27.599  -6.645  53.970  0.00  0.00     0.051 C 
HETATM    5  C   UNK N   1     -28.050  -7.725  54.631  0.00  0.00     0.015 C 
BRANCH   5   6
HETATM    6  C   UNK N   1     -28.256  -9.050  54.001  0.00  0.00    -0.033 A 
HETATM    7  C   UNK N   1     -28.129  -9.144  52.609  0.00  0.00     0.051 A 
HETATM    8  C   UNK N   1     -28.294 -10.377  51.950  0.00  0.00     0.102 A 
HETATM    9  C   UNK N   1     -28.628 -11.519  52.704  0.00  0.00     0.099 A 
HETATM   10  C   UNK N   1     -28.772 -11.421  54.093  0.00  0.00     0.040 A 
HETATM   11  C   UNK N   1     -28.574 -10.202  54.743  0.00  0.00     0.014 A 
BRANCH   8  12
HETATM   12  O   UNK N   1     -28.123 -10.494  50.604  0.00  0.00    -0.353 OA
HETATM   13  C   UNK N   1     -28.441  -9.519  49.679  0.00  0.00     0.210 C 
ENDBRANCH   8  12
BRANCH   9  14
HETATM   14  O   UNK N   1     -28.810 -12.718  52.110  0.00  0.00    -0.358 OA
HETATM   15  H   UNK N   1     -28.116 -13.391  52.082  0.00  0.00     0.218 HD
ENDBRANCH   9  14
ENDBRANCH   5   6
ENDBRANCH   2   4
ENDBRANCH   1   2
BRANCH   1  16
HETATM   16  C   UNK N   1     -26.124  -4.611  56.703  0.00  0.00     0.156 C 
HETATM   17  O   UNK N   1     -25.722  -3.526  57.097  0.00  0.00    -0.293 OA
BRANCH  16  18
HETATM   18  C   UNK N   1     -26.509  -5.677  57.664  0.00  0.00     0.051 C 
HETATM   19  C   UNK N   1     -25.987  -6.915  57.601  0.00  0.00     0.015 C 
BRANCH  19  20
HETATM   20  C   UNK N   1     -26.448  -8.054  58.449  0.00  0.00    -0.033 A 
HETATM   21  C   UNK N   1     -26.799  -9.247  57.802  0.00  0.00     0.051 A 
HETATM   22  C   UNK N   1     -27.306 -10.346  58.528  0.00  0.00     0.102 A 
HETATM   23  C   UNK N   1     -27.442 -10.243  59.920  0.00  0.00     0.099 A 
HETATM   24  C   UNK N   1     -27.081  -9.060  60.575  0.00  0.00     0.040 A 
HETATM   25  C   UNK N   1     -26.591  -7.970  59.851  0.00  0.00     0.014 A 
BRANCH  22  26
HETATM   26  O   UNK N   1     -27.683 -11.499  57.914  0.00  0.00    -0.353 OA
HETATM   27  C   UNK N   1     -26.815 -12.429  57.376  0.00  0.00     0.210 C 
ENDBRANCH  22  26
BRANCH  23  28
HETATM   28  O   UNK N   1     -27.933 -11.288  60.621  0.00  0.00    -0.358 OA
HETATM   29  H   UNK N   1     -28.809 -11.259  61.032  0.00  0.00     0.218 HD
ENDBRANCH  23  28
ENDBRANCH  19  20
ENDBRANCH  16  18
ENDBRANCH   1  16
TORSDOF 10
ENDMDL
MODEL 3
REMARK VINA RESULT:      -5.8      2.730      8.320
REMARK  10 active torsions:
REMARK  status: ('A' for Active; 'I' for Inactive)
REMARK    1  A    between atoms: O_1  and  C_12 
REMARK    2  A    between atoms: O_2  and  C_13 
REMARK    3  A    between atoms: O_3  and  C_18 
REMARK    4  A    between atoms: O_4  and  C_19 
REMARK    5  A    between atoms: C_7  and  C_16 
REMARK    6  A    between atoms: C_8  and  C_17 
REMARK    7  A    between atoms: C_9  and  C_20 
REMARK    8  A    between atoms: C_9  and  C_21 
REMARK    9  A    between atoms: C_20  and  C_24 
REMARK   10  A    between atoms: C_21  and  C_25 
ROOT
HETATM    1  C   UNK N   1     -26.089  -4.834  53.991  0.00  0.00     0.165 C 
ENDROOT
BRANCH   1   2
HETATM    2  C   UNK N   1     -25.609  -3.900  55.064  0.00  0.00     0.156 C 
HETATM    3  O   UNK N   1     -25.373  -2.737  54.769  0.00  0.00    -0.293 OA
BRANCH   2   4
HETATM    4  C   UNK N   1     -25.462  -4.349  56.467  0.00  0.00     0.051 C 
HETATM    5  C   UNK N   1     -25.661  -3.489  57.481  0.00  0.00     0.015 C 
BRANCH   5   6
HETATM    6  C   UNK N   1     -25.546  -3.861  58.910  0.00  0.00    -0.033 A 
HETATM    7  C   UNK N   1     -26.122  -5.068  59.326  0.00  0.00     0.051 A 
HETATM    8  C   UNK N   1     -26.032  -5.488  60.666  0.00  0.00     0.102 A 
HETATM    9  C   UNK N   1     -25.385  -4.659  61.604  0.00  0.00     0.099 A 
HETATM   10  C   UNK N   1     -24.823  -3.444  61.191  0.00  0.00     0.040 A 
HETATM   11  C   UNK N   1     -24.888  -3.050  59.854  0.00  0.00     0.014 A 
BRANCH   8  12
HETATM   12  O   UNK N   1     -26.542  -6.683  61.075  0.00  0.00    -0.353 OA
HETATM   13  C   UNK N   1     -25.921  -7.906  60.911  0.00  0.00     0.210 C 
ENDBRANCH   8  12
BRANCH   9  14
HETATM   14  O   UNK N   1     -25.289  -5.018  62.902  0.00  0.00    -0.358 OA
HETATM   15  H   UNK N   1     -25.439  -5.925  63.200  0.00  0.00     0.218 HD
ENDBRANCH   9  14
ENDBRANCH   5   6
ENDBRANCH   2   4
ENDBRANCH   1   2
BRANCH   1  16
HETATM   16  C   UNK N   1     -27.522  -5.263  54.131  0.00  0.00     0.156 C 
HETATM   17  O   UNK N   1     -28.315  -4.565  54.745  0.00  0.00    -0.293 OA
BRANCH  16  18
HETATM   18  C   UNK N   1     -27.915  -6.606  53.631  0.00  0.00     0.051 C 
HETATM   19  C   UNK N   1     -27.716  -7.722  54.353  0.00  0.00     0.015 C 
BRANCH  19  20
HETATM   20  C   UNK N   1     -27.960  -9.101  53.835  0.00  0.00    -0.033 A 
HETATM   21  C   UNK N   1     -27.656  -9.356  52.490  0.00  0.00     0.051 A 
HETATM   22  C   UNK N   1     -27.921 -10.615  51.911  0.00  0.00     0.102 A 
HETATM   23  C   UNK N   1     -28.481 -11.628  52.701  0.00  0.00     0.099 A 
HETATM   24  C   UNK N   1     -28.775 -11.386  54.049  0.00  0.00     0.040 A 
HETATM   25  C   UNK N   1     -28.523 -10.134  54.615  0.00  0.00     0.014 A 
BRANCH  22  26
HETATM   26  O   UNK N   1     -27.663 -10.869  50.600  0.00  0.00    -0.353 OA
HETATM   27  C   UNK N   1     -27.605  -9.914  49.605  0.00  0.00     0.210 C 
ENDBRANCH  22  26
BRANCH  23  28
HETATM   28  O   UNK N   1     -28.743 -12.834  52.152  0.00  0.00    -0.358 OA
HETATM   29  H   UNK N   1     -28.150 -13.237  51.502  0.00  0.00     0.218 HD
ENDBRANCH  23  28
ENDBRANCH  19  20
ENDBRANCH  16  18
ENDBRANCH   1  16
TORSDOF 10
ENDMDL
MODEL 4
REMARK VINA RESULT:      -5.8     21.151     24.418
REMARK  10 active torsions:
REMARK  status: ('A' for Active; 'I' for Inactive)
REMARK    1  A    between atoms: O_1  and  C_12 
REMARK    2  A    between atoms: O_2  and  C_13 
REMARK    3  A    between atoms: O_3  and  C_18 
REMARK    4  A    between atoms: O_4  and  C_19 
REMARK    5  A    between atoms: C_7  and  C_16 
REMARK    6  A    between atoms: C_8  and  C_17 
REMARK    7  A    between atoms: C_9  and  C_20 
REMARK    8  A    between atoms: C_9  and  C_21 
REMARK    9  A    between atoms: C_20  and  C_24 
REMARK   10  A    between atoms: C_21  and  C_25 
ROOT
HETATM    1  C   UNK N   1     -41.331  12.340  53.450  0.00  0.00     0.165 C 
ENDROOT
BRANCH   1   2
HETATM    2  C   UNK N   1     -40.466  13.502  53.055  0.00  0.00     0.156 C 
HETATM    3  O   UNK N   1     -40.763  14.143  52.057  0.00  0.00    -0.293 OA
BRANCH   2   4
HETATM    4  C   UNK N   1     -39.299  13.906  53.871  0.00  0.00     0.051 C 
HETATM    5  C   UNK N   1     -38.757  15.128  53.726  0.00  0.00     0.015 C 
BRANCH   5   6
HETATM    6  C   UNK N   1     -37.598  15.614  54.510  0.00  0.00    -0.033 A 
HETATM    7  C   UNK N   1     -36.352  15.018  54.281  0.00  0.00     0.051 A 
HETATM    8  C   UNK N   1     -35.207  15.445  54.979  0.00  0.00     0.102 A 
HETATM    9  C   UNK N   1     -35.333  16.461  55.947  0.00  0.00     0.099 A 
HETATM   10  C   UNK N   1     -36.582  17.045  56.188  0.00  0.00     0.040 A 
HETATM   11  C   UNK N   1     -37.707  16.639  55.468  0.00  0.00     0.014 A 
BRANCH   8  12
HETATM   12  O   UNK N   1     -33.979  14.910  54.731  0.00  0.00    -0.353 OA
HETATM   13  C   UNK N   1     -33.756  13.703  54.099  0.00  0.00     0.210 C 
ENDBRANCH   8  12
BRANCH   9  14
HETATM   14  O   UNK N   1     -34.263  16.890  56.650  0.00  0.00    -0.358 OA
HETATM   15  H   UNK N   1     -33.636  16.279  57.062  0.00  0.00     0.218 HD
ENDBRANCH   9  14
ENDBRANCH   5   6
ENDBRANCH   2   4
ENDBRANCH   1   2
BRANCH   1  16
HETATM   16  C   UNK N   1     -40.678  10.996  53.301  0.00  0.00     0.156 C 
HETATM   17  O   UNK N   1     -40.258  10.635  52.212  0.00  0.00    -0.293 OA
BRANCH  16  18
HETATM   18  C   UNK N   1     -40.676  10.072  54.465  0.00  0.00     0.051 C 
HETATM   19  C   UNK N   1     -39.545   9.749  55.117  0.00  0.00     0.015 C 
BRANCH  19  20
HETATM   20  C   UNK N   1     -39.474   8.718  56.194  0.00  0.00    -0.033 A 
HETATM   21  C   UNK N   1     -39.591   9.154  57.522  0.00  0.00     0.051 A 
HETATM   22  C   UNK N   1     -39.468   8.249  58.598  0.00  0.00     0.102 A 
HETATM   23  C   UNK N   1     -39.242   6.892  58.328  0.00  0.00     0.099 A 
HETATM   24  C   UNK N   1     -39.137   6.446  57.005  0.00  0.00     0.040 A 
HETATM   25  C   UNK N   1     -39.247   7.348  55.944  0.00  0.00     0.014 A 
BRANCH  22  26
HETATM   26  O   UNK N   1     -39.546   8.659  59.892  0.00  0.00    -0.353 OA
HETATM   27  C   UNK N   1     -38.816   9.695  60.439  0.00  0.00     0.210 C 
ENDBRANCH  22  26
BRANCH  23  28
HETATM   28  O   UNK N   1     -39.116   6.020  59.353  0.00  0.00    -0.358 OA
HETATM   29  H   UNK N   1     -38.256   5.828  59.755  0.00  0.00     0.218 HD
ENDBRANCH  23  28
ENDBRANCH  19  20
ENDBRANCH  16  18
ENDBRANCH   1  16
TORSDOF 10
ENDMDL
MODEL 5
REMARK VINA RESULT:      -5.8      4.789      9.417
REMARK  10 active torsions:
REMARK  status: ('A' for Active; 'I' for Inactive)
REMARK    1  A    between atoms: O_1  and  C_12 
REMARK    2  A    between atoms: O_2  and  C_13 
REMARK    3  A    between atoms: O_3  and  C_18 
REMARK    4  A    between atoms: O_4  and  C_19 
REMARK    5  A    between atoms: C_7  and  C_16 
REMARK    6  A    between atoms: C_8  and  C_17 
REMARK    7  A    between atoms: C_9  and  C_20 
REMARK    8  A    between atoms: C_9  and  C_21 
REMARK    9  A    between atoms: C_20  and  C_24 
REMARK   10  A    between atoms: C_21  and  C_25 
ROOT
HETATM    1  C   UNK N   1     -25.971  -4.538  55.762  0.00  0.00     0.165 C 
ENDROOT
BRANCH   1   2
HETATM    2  C   UNK N   1     -25.958  -3.495  56.842  0.00  0.00     0.156 C 
HETATM    3  O   UNK N   1     -26.376  -3.792  57.952  0.00  0.00    -0.293 OA
BRANCH   2   4
HETATM    4  C   UNK N   1     -25.412  -2.140  56.597  0.00  0.00     0.051 C 
HETATM    5  C   UNK N   1     -25.020  -1.778  55.364  0.00  0.00     0.015 C 
BRANCH   5   6
HETATM    6  C   UNK N   1     -24.475  -0.441  55.033  0.00  0.00    -0.033 A 
HETATM    7  C   UNK N   1     -23.818  -0.282  53.805  0.00  0.00     0.051 A 
HETATM    8  C   UNK N   1     -23.294   0.966  53.422  0.00  0.00     0.102 A 
HETATM    9  C   UNK N   1     -23.400   2.056  54.307  0.00  0.00     0.099 A 
HETATM   10  C   UNK N   1     -24.042   1.894  55.541  0.00  0.00     0.040 A 
HETATM   11  C   UNK N   1     -24.589   0.661  55.900  0.00  0.00     0.014 A 
BRANCH   8  12
HETATM   12  O   UNK N   1     -22.698   1.147  52.210  0.00  0.00    -0.353 OA
HETATM   13  C   UNK N   1     -22.315   0.131  51.358  0.00  0.00     0.210 C 
ENDBRANCH   8  12
BRANCH   9  14
HETATM   14  O   UNK N   1     -22.898   3.267  53.985  0.00  0.00    -0.358 OA
HETATM   15  H   UNK N   1     -22.738   3.954  54.647  0.00  0.00     0.218 HD
ENDBRANCH   9  14
ENDBRANCH   5   6
ENDBRANCH   2   4
ENDBRANCH   1   2
BRANCH   1  16
HETATM   16  C   UNK N   1     -27.335  -4.857  55.218  0.00  0.00     0.156 C 
HETATM   17  O   UNK N   1     -28.174  -3.974  55.110  0.00  0.00    -0.293 OA
BRANCH  16  18
HETATM   18  C   UNK N   1     -27.679  -6.276  54.944  0.00  0.00     0.051 C 
HETATM   19  C   UNK N   1     -27.239  -6.917  53.848  0.00  0.00     0.015 C 
BRANCH  19  20
HETATM   20  C   UNK N   1     -27.675  -8.291  53.459  0.00  0.00    -0.033 A 
HETATM   21  C   UNK N   1     -27.643  -8.624  52.097  0.00  0.00     0.051 A 
HETATM   22  C   UNK N   1     -28.101  -9.880  51.644  0.00  0.00     0.102 A 
HETATM   23  C   UNK N   1     -28.579 -10.811  52.577  0.00  0.00     0.099 A 
HETATM   24  C   UNK N   1     -28.602 -10.492  53.940  0.00  0.00     0.040 A 
HETATM   25  C   UNK N   1     -28.159  -9.243  54.382  0.00  0.00     0.014 A 
BRANCH  22  26
HETATM   26  O   UNK N   1     -28.108 -10.208  50.325  0.00  0.00    -0.353 OA
HETATM   27  C   UNK N   1     -28.975  -9.686  49.385  0.00  0.00     0.210 C 
ENDBRANCH  22  26
BRANCH  23  28
HETATM   28  O   UNK N   1     -29.026 -12.013  52.151  0.00  0.00    -0.358 OA
HETATM   29  H   UNK N   1     -29.956 -12.161  51.929  0.00  0.00     0.218 HD
ENDBRANCH  23  28
ENDBRANCH  19  20
ENDBRANCH  16  18
ENDBRANCH   1  16
TORSDOF 10
ENDMDL
MODEL 6
REMARK VINA RESULT:      -5.7      9.332     12.086
REMARK  10 active torsions:
REMARK  status: ('A' for Active; 'I' for Inactive)
REMARK    1  A    between atoms: O_1  and  C_12 
REMARK    2  A    between atoms: O_2  and  C_13 
REMARK    3  A    between atoms: O_3  and  C_18 
REMARK    4  A    between atoms: O_4  and  C_19 
REMARK    5  A    between atoms: C_7  and  C_16 
REMARK    6  A    between atoms: C_8  and  C_17 
REMARK    7  A    between atoms: C_9  and  C_20 
REMARK    8  A    between atoms: C_9  and  C_21 
REMARK    9  A    between atoms: C_20  and  C_24 
REMARK   10  A    between atoms: C_21  and  C_25 
ROOT
HETATM    1  C   UNK N   1     -20.873   0.259  62.850  0.00  0.00     0.165 C 
ENDROOT
BRANCH   1   2
HETATM    2  C   UNK N   1     -21.002  -1.218  62.610  0.00  0.00     0.156 C 
HETATM    3  O   UNK N   1     -19.988  -1.900  62.586  0.00  0.00    -0.293 OA
BRANCH   2   4
HETATM    4  C   UNK N   1     -22.327  -1.858  62.448  0.00  0.00     0.051 C 
HETATM    5  C   UNK N   1     -22.782  -2.182  61.225  0.00  0.00     0.015 C 
BRANCH   5   6
HETATM    6  C   UNK N   1     -24.088  -2.834  60.978  0.00  0.00    -0.033 A 
HETATM    7  C   UNK N   1     -24.946  -2.254  60.035  0.00  0.00     0.051 A 
HETATM    8  C   UNK N   1     -26.194  -2.834  59.740  0.00  0.00     0.102 A 
HETATM    9  C   UNK N   1     -26.594  -3.993  60.434  0.00  0.00     0.099 A 
HETATM   10  C   UNK N   1     -25.743  -4.563  61.388  0.00  0.00     0.040 A 
HETATM   11  C   UNK N   1     -24.493  -4.000  61.652  0.00  0.00     0.014 A 
BRANCH   8  12
HETATM   12  O   UNK N   1     -27.017  -2.310  58.789  0.00  0.00    -0.353 OA
HETATM   13  C   UNK N   1     -26.700  -2.187  57.450  0.00  0.00     0.210 C 
ENDBRANCH   8  12
BRANCH   9  14
HETATM   14  O   UNK N   1     -27.789  -4.573  60.192  0.00  0.00    -0.358 OA
HETATM   15  H   UNK N   1     -28.608  -4.260  60.601  0.00  0.00     0.218 HD
ENDBRANCH   9  14
ENDBRANCH   5   6
ENDBRANCH   2   4
ENDBRANCH   1   2
BRANCH   1  16
HETATM   16  C   UNK N   1     -21.538   0.749  64.104  0.00  0.00     0.156 C 
HETATM   17  O   UNK N   1     -22.095   1.837  64.119  0.00  0.00    -0.293 OA
BRANCH  16  18
HETATM   18  C   UNK N   1     -21.388  -0.048  65.349  0.00  0.00     0.051 C 
HETATM   19  C   UNK N   1     -20.467   0.252  66.281  0.00  0.00     0.015 C 
BRANCH  19  20
HETATM   20  C   UNK N   1     -20.182  -0.600  67.473  0.00  0.00    -0.033 A 
HETATM   21  C   UNK N   1     -20.826  -1.844  67.554  0.00  0.00     0.051 A 
HETATM   22  C   UNK N   1     -20.659  -2.677  68.680  0.00  0.00     0.102 A 
HETATM   23  C   UNK N   1     -19.822  -2.258  69.723  0.00  0.00     0.099 A 
HETATM   24  C   UNK N   1     -19.164  -1.025  69.645  0.00  0.00     0.040 A 
HETATM   25  C   UNK N   1     -19.343  -0.197  68.533  0.00  0.00     0.014 A 
BRANCH  22  26
HETATM   26  O   UNK N   1     -21.301  -3.871  68.790  0.00  0.00    -0.353 OA
HETATM   27  C   UNK N   1     -21.592  -4.713  67.735  0.00  0.00     0.210 C 
ENDBRANCH  22  26
BRANCH  23  28
HETATM   28  O   UNK N   1     -19.663  -3.048  70.808  0.00  0.00    -0.358 OA
HETATM   29  H   UNK N   1     -19.241  -3.917  70.748  0.00  0.00     0.218 HD
ENDBRANCH  23  28
ENDBRANCH  19  20
ENDBRANCH  16  18
ENDBRANCH   1  16
TORSDOF 10
ENDMDL
MODEL 7
REMARK VINA RESULT:      -5.7     26.136     30.369
REMARK  10 active torsions:
REMARK  status: ('A' for Active; 'I' for Inactive)
REMARK    1  A    between atoms: O_1  and  C_12 
REMARK    2  A    between atoms: O_2  and  C_13 
REMARK    3  A    between atoms: O_3  and  C_18 
REMARK    4  A    between atoms: O_4  and  C_19 
REMARK    5  A    between atoms: C_7  and  C_16 
REMARK    6  A    between atoms: C_8  and  C_17 
REMARK    7  A    between atoms: C_9  and  C_20 
REMARK    8  A    between atoms: C_9  and  C_21 
REMARK    9  A    between atoms: C_20  and  C_24 
REMARK   10  A    between atoms: C_21  and  C_25 
ROOT
HETATM    1  C   UNK N   1     -40.309  18.068  51.048  0.00  0.00     0.165 C 
ENDROOT
BRANCH   1   2
HETATM    2  C   UNK N   1     -39.742  18.100  52.438  0.00  0.00     0.156 C 
HETATM    3  O   UNK N   1     -40.281  18.809  53.276  0.00  0.00    -0.293 OA
BRANCH   2   4
HETATM    4  C   UNK N   1     -38.583  17.261  52.817  0.00  0.00     0.051 C 
HETATM    5  C   UNK N   1     -37.981  17.429  54.007  0.00  0.00     0.015 C 
BRANCH   5   6
HETATM    6  C   UNK N   1     -36.825  16.625  54.466  0.00  0.00    -0.033 A 
HETATM    7  C   UNK N   1     -36.024  17.148  55.490  0.00  0.00     0.051 A 
HETATM    8  C   UNK N   1     -34.922  16.426  55.985  0.00  0.00     0.102 A 
HETATM    9  C   UNK N   1     -34.604  15.180  55.412  0.00  0.00     0.099 A 
HETATM   10  C   UNK N   1     -35.394  14.665  54.377  0.00  0.00     0.040 A 
HETATM   11  C   UNK N   1     -36.506  15.371  53.914  0.00  0.00     0.014 A 
BRANCH   8  12
HETATM   12  O   UNK N   1     -34.165  16.899  57.014  0.00  0.00    -0.353 OA
HETATM   13  C   UNK N   1     -34.510  17.960  57.828  0.00  0.00     0.210 C 
ENDBRANCH   8  12
BRANCH   9  14
HETATM   14  O   UNK N   1     -33.546  14.462  55.847  0.00  0.00    -0.358 OA
HETATM   15  H   UNK N   1     -33.109  14.646  56.690  0.00  0.00     0.218 HD
ENDBRANCH   9  14
ENDBRANCH   5   6
ENDBRANCH   2   4
ENDBRANCH   1   2
BRANCH   1  16
HETATM   16  C   UNK N   1     -40.001  19.283  50.220  0.00  0.00     0.156 C 
HETATM   17  O   UNK N   1     -40.830  20.174  50.107  0.00  0.00    -0.293 OA
BRANCH  16  18
HETATM   18  C   UNK N   1     -38.736  19.313  49.441  0.00  0.00     0.051 C 
HETATM   19  C   UNK N   1     -38.691  18.972  48.141  0.00  0.00     0.015 C 
BRANCH  19  20
HETATM   20  C   UNK N   1     -37.426  18.847  47.359  0.00  0.00    -0.033 A 
HETATM   21  C   UNK N   1     -36.329  19.619  47.767  0.00  0.00     0.051 A 
HETATM   22  C   UNK N   1     -35.120  19.606  47.040  0.00  0.00     0.102 A 
HETATM   23  C   UNK N   1     -35.014  18.794  45.902  0.00  0.00     0.099 A 
HETATM   24  C   UNK N   1     -36.100  18.009  45.496  0.00  0.00     0.040 A 
HETATM   25  C   UNK N   1     -37.299  18.035  46.212  0.00  0.00     0.014 A 
BRANCH  22  26
HETATM   26  O   UNK N   1     -34.057  20.373  47.401  0.00  0.00    -0.353 OA
HETATM   27  C   UNK N   1     -34.008  21.750  47.312  0.00  0.00     0.210 C 
ENDBRANCH  22  26
BRANCH  23  28
HETATM   28  O   UNK N   1     -33.862  18.781  45.196  0.00  0.00    -0.358 OA
HETATM   29  H   UNK N   1     -33.104  18.244  45.469  0.00  0.00     0.218 HD
ENDBRANCH  23  28
ENDBRANCH  19  20
ENDBRANCH  16  18
ENDBRANCH   1  16
TORSDOF 10
ENDMDL
MODEL 8
REMARK VINA RESULT:      -5.7      3.764      8.805
REMARK  10 active torsions:
REMARK  status: ('A' for Active; 'I' for Inactive)
REMARK    1  A    between atoms: O_1  and  C_12 
REMARK    2  A    between atoms: O_2  and  C_13 
REMARK    3  A    between atoms: O_3  and  C_18 
REMARK    4  A    between atoms: O_4  and  C_19 
REMARK    5  A    between atoms: C_7  and  C_16 
REMARK    6  A    between atoms: C_8  and  C_17 
REMARK    7  A    between atoms: C_9  and  C_20 
REMARK    8  A    between atoms: C_9  and  C_21 
REMARK    9  A    between atoms: C_20  and  C_24 
REMARK   10  A    between atoms: C_21  and  C_25 
ROOT
HETATM    1  C   UNK N   1     -25.913  -4.433  54.636  0.00  0.00     0.165 C 
ENDROOT
BRANCH   1   2
HETATM    2  C   UNK N   1     -25.832  -3.105  55.332  0.00  0.00     0.156 C 
HETATM    3  O   UNK N   1     -25.997  -2.087  54.676  0.00  0.00    -0.293 OA
BRANCH   2   4
HETATM    4  C   UNK N   1     -25.602  -3.014  56.792  0.00  0.00     0.051 C 
HETATM    5  C   UNK N   1     -25.551  -4.127  57.544  0.00  0.00     0.015 C 
BRANCH   5   6
HETATM    6  C   UNK N   1     -25.314  -4.124  59.006  0.00  0.00    -0.033 A 
HETATM    7  C   UNK N   1     -24.399  -3.197  59.523  0.00  0.00     0.051 A 
HETATM    8  C   UNK N   1     -24.142  -3.129  60.904  0.00  0.00     0.102 A 
HETATM    9  C   UNK N   1     -24.789  -4.034  61.769  0.00  0.00     0.099 A 
HETATM   10  C   UNK N   1     -25.691  -4.972  61.250  0.00  0.00     0.040 A 
HETATM   11  C   UNK N   1     -25.965  -5.011  59.882  0.00  0.00     0.014 A 
BRANCH   8  12
HETATM   12  O   UNK N   1     -23.294  -2.200  61.427  0.00  0.00    -0.353 OA
HETATM   13  C   UNK N   1     -21.916  -2.272  61.379  0.00  0.00     0.210 C 
ENDBRANCH   8  12
BRANCH   9  14
HETATM   14  O   UNK N   1     -24.560  -4.013  63.099  0.00  0.00    -0.358 OA
HETATM   15  H   UNK N   1     -24.430  -4.821  63.614  0.00  0.00     0.218 HD
ENDBRANCH   9  14
ENDBRANCH   5   6
ENDBRANCH   2   4
ENDBRANCH   1   2
BRANCH   1  16
HETATM   16  C   UNK N   1     -27.291  -5.030  54.587  0.00  0.00     0.156 C 
HETATM   17  O   UNK N   1     -28.217  -4.485  55.169  0.00  0.00    -0.293 OA
BRANCH  16  18
HETATM   18  C   UNK N   1     -27.471  -6.353  53.936  0.00  0.00     0.051 C 
HETATM   19  C   UNK N   1     -28.223  -7.322  54.488  0.00  0.00     0.015 C 
BRANCH  19  20
HETATM   20  C   UNK N   1     -28.316  -8.710  53.947  0.00  0.00    -0.033 A 
HETATM   21  C   UNK N   1     -28.056  -8.897  52.582  0.00  0.00     0.051 A 
HETATM   22  C   UNK N   1     -28.188 -10.168  51.983  0.00  0.00     0.102 A 
HETATM   23  C   UNK N   1     -28.568 -11.260  52.774  0.00  0.00     0.099 A 
HETATM   24  C   UNK N   1     -28.816 -11.086  54.141  0.00  0.00     0.040 A 
HETATM   25  C   UNK N   1     -28.697  -9.823  54.727  0.00  0.00     0.014 A 
BRANCH  22  26
HETATM   26  O   UNK N   1     -27.972 -10.361  50.655  0.00  0.00    -0.353 OA
HETATM   27  C   UNK N   1     -28.697  -9.766  49.641  0.00  0.00     0.210 C 
ENDBRANCH  22  26
BRANCH  23  28
HETATM   28  O   UNK N   1     -28.703 -12.480  52.207  0.00  0.00    -0.358 OA
HETATM   29  H   UNK N   1     -29.525 -12.986  52.278  0.00  0.00     0.218 HD
ENDBRANCH  23  28
ENDBRANCH  19  20
ENDBRANCH  16  18
ENDBRANCH   1  16
TORSDOF 10
ENDMDL
MODEL 9
REMARK VINA RESULT:      -5.6      2.633      4.274
REMARK  10 active torsions:
REMARK  status: ('A' for Active; 'I' for Inactive)
REMARK    1  A    between atoms: O_1  and  C_12 
REMARK    2  A    between atoms: O_2  and  C_13 
REMARK    3  A    between atoms: O_3  and  C_18 
REMARK    4  A    between atoms: O_4  and  C_19 
REMARK    5  A    between atoms: C_7  and  C_16 
REMARK    6  A    between atoms: C_8  and  C_17 
REMARK    7  A    between atoms: C_9  and  C_20 
REMARK    8  A    between atoms: C_9  and  C_21 
REMARK    9  A    between atoms: C_20  and  C_24 
REMARK   10  A    between atoms: C_21  and  C_25 
ROOT
HETATM    1  C   UNK N   1     -26.106  -4.516  54.452  0.00  0.00     0.165 C 
ENDROOT
BRANCH   1   2
HETATM    2  C   UNK N   1     -27.527  -4.955  54.661  0.00  0.00     0.156 C 
HETATM    3  O   UNK N   1     -28.356  -4.121  54.995  0.00  0.00    -0.293 OA
BRANCH   2   4
HETATM    4  C   UNK N   1     -27.942  -6.357  54.427  0.00  0.00     0.051 C 
HETATM    5  C   UNK N   1     -27.458  -7.044  53.378  0.00  0.00     0.015 C 
BRANCH   5   6
HETATM    6  C   UNK N   1     -27.813  -8.451  53.080  0.00  0.00    -0.033 A 
HETATM    7  C   UNK N   1     -27.578  -8.929  51.785  0.00  0.00     0.051 A 
HETATM    8  C   UNK N   1     -27.876 -10.261  51.442  0.00  0.00     0.102 A 
HETATM    9  C   UNK N   1     -28.453 -11.107  52.409  0.00  0.00     0.099 A 
HETATM   10  C   UNK N   1     -28.704 -10.624  53.699  0.00  0.00     0.040 A 
HETATM   11  C   UNK N   1     -28.375  -9.311  54.041  0.00  0.00     0.014 A 
BRANCH   8  12
HETATM   12  O   UNK N   1     -27.606 -10.755  50.201  0.00  0.00    -0.353 OA
HETATM   13  C   UNK N   1     -26.528 -10.386  49.420  0.00  0.00     0.210 C 
ENDBRANCH   8  12
BRANCH   9  14
HETATM   14  O   UNK N   1     -28.768 -12.387  52.117  0.00  0.00    -0.358 OA
HETATM   15  H   UNK N   1     -28.320 -13.137  52.532  0.00  0.00     0.218 HD
ENDBRANCH   9  14
ENDBRANCH   5   6
ENDBRANCH   2   4
ENDBRANCH   1   2
BRANCH   1  16
HETATM   16  C   UNK N   1     -25.700  -3.311  55.252  0.00  0.00     0.156 C 
HETATM   17  O   UNK N   1     -25.598  -2.221  54.710  0.00  0.00    -0.293 OA
BRANCH  16  18
HETATM   18  C   UNK N   1     -25.298  -3.500  56.670  0.00  0.00     0.051 C 
HETATM   19  C   UNK N   1     -25.934  -4.363  57.482  0.00  0.00     0.015 C 
BRANCH  19  20
HETATM   20  C   UNK N   1     -25.661  -4.481  58.944  0.00  0.00    -0.033 A 
HETATM   21  C   UNK N   1     -25.943  -5.708  59.563  0.00  0.00     0.051 A 
HETATM   22  C   UNK N   1     -25.774  -5.877  60.954  0.00  0.00     0.102 A 
HETATM   23  C   UNK N   1     -25.300  -4.803  61.721  0.00  0.00     0.099 A 
HETATM   24  C   UNK N   1     -25.003  -3.579  61.109  0.00  0.00     0.040 A 
HETATM   25  C   UNK N   1     -25.185  -3.413  59.734  0.00  0.00     0.014 A 
BRANCH  22  26
HETATM   26  O   UNK N   1     -26.073  -7.048  61.576  0.00  0.00    -0.353 OA
HETATM   27  C   UNK N   1     -26.308  -8.247  60.933  0.00  0.00     0.210 C 
ENDBRANCH  22  26
BRANCH  23  28
HETATM   28  O   UNK N   1     -25.142  -4.955  63.055  0.00  0.00    -0.358 OA
HETATM   29  H   UNK N   1     -24.455  -5.527  63.424  0.00  0.00     0.218 HD
ENDBRANCH  23  28
ENDBRANCH  19  20
ENDBRANCH  16  18
ENDBRANCH   1  16
TORSDOF 10
ENDMDL
