133124899
  -OEChem-05112102463D

 63 65  0     1  0  0  0  0  0999 V2000
    1.8508   -0.3094    0.8743 O   0  0  0  0  0  0  0  0  0  0  0  0
   -0.9680   -1.0191    1.1565 O   0  0  0  0  0  0  0  0  0  0  0  0
   -2.6106    0.5001    0.3715 O   0  0  0  0  0  0  0  0  0  0  0  0
    3.5783    0.5613   -0.4537 O   0  0  0  0  0  0  0  0  0  0  0  0
   -5.0270    0.8140   -1.2385 O   0  0  0  0  0  0  0  0  0  0  0  0
   -0.4363    1.7979   -1.0232 O   0  0  0  0  0  0  0  0  0  0  0  0
   -1.1950    2.6286    1.5580 O   0  0  0  0  0  0  0  0  0  0  0  0
   -5.0980   -2.1181    0.8514 O   0  0  0  0  0  0  0  0  0  0  0  0
    4.1786    0.2804    2.2857 O   0  0  0  0  0  0  0  0  0  0  0  0
    6.4417   -1.2896    1.8971 O   0  0  0  0  0  0  0  0  0  0  0  0
   -4.3639   -2.7602   -1.7901 O   0  0  0  0  0  0  0  0  0  0  0  0
    7.1092   -0.4206   -0.7880 O   0  0  0  0  0  0  0  0  0  0  0  0
   -6.5360   -1.0082   -1.3974 O   0  0  0  0  0  0  0  0  0  0  0  0
    0.9967   -2.6746   -1.2773 O   0  0  0  0  0  0  0  0  0  0  0  0
    0.2145   -3.3092    0.7675 O   0  0  0  0  0  0  0  0  0  0  0  0
   -4.8050    2.4607    1.8862 O   0  0  0  0  0  0  0  0  0  0  0  0
    6.2299    1.5542   -2.5225 O   0  0  0  0  0  0  0  0  0  0  0  0
   -4.6152    3.1959   -0.2631 O   0  0  0  0  0  0  0  0  0  0  0  0
    4.3914    2.6218   -1.7003 O   0  0  0  0  0  0  0  0  0  0  0  0
    0.8751   -0.0300   -0.1309 C   0  0  2  0  0  0  0  0  0  0  0  0
    0.3062    1.3714    0.1166 C   0  0  2  0  0  0  0  0  0  0  0  0
   -0.5710    1.3648    1.3757 C   0  0  2  0  0  0  0  0  0  0  0  0
   -1.6137    0.2426    1.3571 C   0  0  2  0  0  0  0  0  0  0  0  0
   -0.2336   -1.0871   -0.0638 C   0  0  1  0  0  0  0  0  0  0  0  0
   -3.8785   -0.0296    0.7621 C   0  0  2  0  0  0  0  0  0  0  0  0
    3.1294   -0.5654    0.3014 C   0  0  1  0  0  0  0  0  0  0  0  0
   -3.9930   -1.4633    0.2329 C   0  0  2  0  0  0  0  0  0  0  0  0
    4.1200   -0.8627    1.4266 C   0  0  1  0  0  0  0  0  0  0  0  0
    5.5025   -1.1338    0.8369 C   0  0  1  0  0  0  0  0  0  0  0  0
   -4.9919    0.8537    0.1865 C   0  0  1  0  0  0  0  0  0  0  0  0
   -4.1457   -1.4464   -1.2939 C   0  0  2  0  0  0  0  0  0  0  0  0
    5.9389    0.0037   -0.0905 C   0  0  2  0  0  0  0  0  0  0  0  0
    4.8315    0.3280   -1.0937 C   0  0  2  0  0  0  0  0  0  0  0  0
   -5.2554   -0.4990   -1.7610 C   0  0  2  0  0  0  0  0  0  0  0  0
    0.3308   -2.4713   -0.1144 C   0  0  0  0  0  0  0  0  0  0  0  0
   -4.7839    2.2917    0.5415 C   0  0  0  0  0  0  0  0  0  0  0  0
    5.0960    1.6268   -1.7835 C   0  0  0  0  0  0  0  0  0  0  0  0
    1.3120   -0.0663   -1.1383 H   0  0  0  0  0  0  0  0  0  0  0  0
    1.1150    2.0985    0.2571 H   0  0  0  0  0  0  0  0  0  0  0  0
    0.0843    1.1964    2.2404 H   0  0  0  0  0  0  0  0  0  0  0  0
   -2.0638    0.2233    2.3570 H   0  0  0  0  0  0  0  0  0  0  0  0
   -0.9335   -0.9826   -0.9006 H   0  0  0  0  0  0  0  0  0  0  0  0
   -3.9935   -0.0229    1.8538 H   0  0  0  0  0  0  0  0  0  0  0  0
    3.0591   -1.4379   -0.3591 H   0  0  0  0  0  0  0  0  0  0  0  0
   -3.1135   -2.0631    0.4836 H   0  0  0  0  0  0  0  0  0  0  0  0
    3.7818   -1.6991    2.0470 H   0  0  0  0  0  0  0  0  0  0  0  0
    5.4912   -2.0796    0.2806 H   0  0  0  0  0  0  0  0  0  0  0  0
   -5.9769    0.5562    0.5667 H   0  0  0  0  0  0  0  0  0  0  0  0
   -3.2034   -1.0876   -1.7263 H   0  0  0  0  0  0  0  0  0  0  0  0
    6.2208    0.8855    0.4968 H   0  0  0  0  0  0  0  0  0  0  0  0
    4.7084   -0.4474   -1.8598 H   0  0  0  0  0  0  0  0  0  0  0  0
   -5.2331   -0.4372   -2.8549 H   0  0  0  0  0  0  0  0  0  0  0  0
    0.1716    1.8099   -1.7820 H   0  0  0  0  0  0  0  0  0  0  0  0
   -0.4946    3.3028    1.5735 H   0  0  0  0  0  0  0  0  0  0  0  0
   -4.9372   -2.1224    1.8104 H   0  0  0  0  0  0  0  0  0  0  0  0
    4.2973    1.0719    1.7341 H   0  0  0  0  0  0  0  0  0  0  0  0
    6.1314   -2.0201    2.4589 H   0  0  0  0  0  0  0  0  0  0  0  0
   -3.6275   -3.3162   -1.4830 H   0  0  0  0  0  0  0  0  0  0  0  0
    6.8728   -1.1887   -1.3355 H   0  0  0  0  0  0  0  0  0  0  0  0
   -7.1785   -0.6468   -2.0312 H   0  0  0  0  0  0  0  0  0  0  0  0
    1.3784   -3.5768   -1.3282 H   0  0  0  0  0  0  0  0  0  0  0  0
   -4.6670    3.3982    2.1400 H   0  0  0  0  0  0  0  0  0  0  0  0
    6.4210    2.3983   -2.9844 H   0  0  0  0  0  0  0  0  0  0  0  0
  1 20  1  0  0  0  0
  1 26  1  0  0  0  0
  2 23  1  0  0  0  0
  2 24  1  0  0  0  0
  3 23  1  0  0  0  0
  3 25  1  0  0  0  0
  4 26  1  0  0  0  0
  4 33  1  0  0  0  0
  5 30  1  0  0  0  0
  5 34  1  0  0  0  0
  6 21  1  0  0  0  0
  6 53  1  0  0  0  0
  7 22  1  0  0  0  0
  7 54  1  0  0  0  0
  8 27  1  0  0  0  0
  8 55  1  0  0  0  0
  9 28  1  0  0  0  0
  9 56  1  0  0  0  0
 10 29  1  0  0  0  0
 10 57  1  0  0  0  0
 11 31  1  0  0  0  0
 11 58  1  0  0  0  0
 12 32  1  0  0  0  0
 12 59  1  0  0  0  0
 13 34  1  0  0  0  0
 13 60  1  0  0  0  0
 14 35  1  0  0  0  0
 14 61  1  0  0  0  0
 15 35  2  0  0  0  0
 16 36  1  0  0  0  0
 16 62  1  0  0  0  0
 17 37  1  0  0  0  0
 17 63  1  0  0  0  0
 18 36  2  0  0  0  0
 19 37  2  0  0  0  0
 20 21  1  0  0  0  0
 20 24  1  0  0  0  0
 20 38  1  0  0  0  0
 21 22  1  0  0  0  0
 21 39  1  0  0  0  0
 22 23  1  0  0  0  0
 22 40  1  0  0  0  0
 23 41  1  0  0  0  0
 24 35  1  0  0  0  0
 24 42  1  0  0  0  0
 25 27  1  0  0  0  0
 25 30  1  0  0  0  0
 25 43  1  0  0  0  0
 26 28  1  0  0  0  0
 26 44  1  0  0  0  0
 27 31  1  0  0  0  0
 27 45  1  0  0  0  0
 28 29  1  0  0  0  0
 28 46  1  0  0  0  0
 29 32  1  0  0  0  0
 29 47  1  0  0  0  0
 30 36  1  0  0  0  0
 30 48  1  0  0  0  0
 31 34  1  0  0  0  0
 31 49  1  0  0  0  0
 32 33  1  0  0  0  0
 32 50  1  0  0  0  0
 33 37  1  0  0  0  0
 33 51  1  0  0  0  0
 34 52  1  0  0  0  0
M  END
> <PUBCHEM_COMPOUND_CID>
133124899

> <PUBCHEM_CONFORMER_RMSD>
1.2

> <PUBCHEM_CONFORMER_DIVERSEORDER>
1
32
16
7
18
15
13
4
28
34
20
30
2
5
31
17
21
19
8
24
27
12
9
10
29
25
23
35
6
3
26
22
33
14
11

> <PUBCHEM_MMFF94_PARTIAL_CHARGES>
48
1 -0.56
10 -0.68
11 -0.68
12 -0.68
13 -0.68
14 -0.65
15 -0.57
16 -0.65
17 -0.65
18 -0.57
19 -0.57
2 -0.56
20 0.28
21 0.28
22 0.28
23 0.56
24 0.34
25 0.28
26 0.56
27 0.28
28 0.28
29 0.28
3 -0.56
30 0.34
31 0.28
32 0.28
33 0.34
34 0.56
35 0.66
36 0.66
37 0.66
4 -0.56
5 -0.56
53 0.4
54 0.4
55 0.4
56 0.4
57 0.4
58 0.4
59 0.4
6 -0.68
60 0.4
61 0.5
62 0.5
63 0.5
7 -0.68
8 -0.68
9 -0.68

> <PUBCHEM_EFFECTIVE_ROTOR_COUNT>
10.6

> <PUBCHEM_PHARMACOPHORE_FEATURES>
33
1 1 acceptor
1 10 acceptor
1 10 donor
1 11 acceptor
1 11 donor
1 12 acceptor
1 12 donor
1 13 acceptor
1 13 donor
1 14 acceptor
1 15 acceptor
1 16 acceptor
1 17 acceptor
1 18 acceptor
1 19 acceptor
1 2 acceptor
1 3 acceptor
1 4 acceptor
1 5 acceptor
1 6 acceptor
1 6 donor
1 7 acceptor
1 7 donor
1 8 acceptor
1 8 donor
1 9 acceptor
1 9 donor
3 14 15 35 anion
3 16 18 36 anion
3 17 19 37 anion
6 2 20 21 22 23 24 rings
6 4 26 28 29 32 33 rings
6 5 25 27 30 31 34 rings

> <PUBCHEM_HEAVY_ATOM_COUNT>
37

> <PUBCHEM_ATOM_DEF_STEREO_COUNT>
15

> <PUBCHEM_ATOM_UDEF_STEREO_COUNT>
0

> <PUBCHEM_BOND_DEF_STEREO_COUNT>
0

> <PUBCHEM_BOND_UDEF_STEREO_COUNT>
0

> <PUBCHEM_ISOTOPIC_ATOM_COUNT>
0

> <PUBCHEM_COMPONENT_COUNT>
1

> <PUBCHEM_CACTVS_TAUTO_COUNT>
1

> <PUBCHEM_CONFORMER_ID>
07EF532300000001

> <PUBCHEM_MMFF94_ENERGY>
97.6966

> <PUBCHEM_FEATURE_SELFOVERLAP>
167.916

> <PUBCHEM_SHAPE_FINGERPRINT>
10906281 52 18263382316433874153
12236239 1 18259988167616129050
12422481 6 18041841688356446629
12616971 3 18041283179631447664
12788726 201 18343311374661077552
13690498 29 18271807994945296615
13782708 43 16200161963127681004
13911987 19 18336553806050573191
14068700 675 18272649052168050200
14294032 229 18197500628086852736
14790565 3 18334301980493392812
14856354 85 18343018930538535359
15183329 4 17822007610132201676
15274700 147 14282799780650376390
1577012 14 18334863792802609648
17349148 13 18410581703318549418
17844677 252 17775280590576301177
17980427 23 18113628867185369509
21033648 144 17458348575709103774
22393880 68 17917702492449014825
2303208 19 16415484852401402044
23081809 10 18335140886506516000
23559900 14 18057049012501116438
2838139 119 17749108881067230636
4015057 19 17676212406860076392
4058900 60 18040437685323628634
4173938 77 17313967323622162772
59755656 215 17988362551463564078

> <PUBCHEM_SHAPE_MULTIPOLES>
649.93
17.05
3.02
1.95
9.46
0.06
-0.26
1.49
-4.54
-2.66
-0.26
1.17
0.39
-3.53

> <PUBCHEM_SHAPE_SELFOVERLAP>
1373.251

> <PUBCHEM_SHAPE_VOLUME>
353.5

> <PUBCHEM_COORDINATE_TYPE>
2
5
10

$$$$
