REMARK  Name = 6255
REMARK  12 active torsions:
REMARK  status: ('A' for Active; 'I' for Inactive)
REMARK    1  A    between atoms: O_1  and  C_12
REMARK    2  A    between atoms: O_1  and  C_14
REMARK    3  A    between atoms: O_4  and  C_13
REMARK    4  A    between atoms: O_5  and  C_16
REMARK    5  A    between atoms: O_6  and  C_17
REMARK    6  A    between atoms: O_7  and  C_18
REMARK    7  A    between atoms: O_8  and  C_19
REMARK    8  A    between atoms: O_9  and  C_21
REMARK    9  A    between atoms: O_10  and  C_22
REMARK   10  A    between atoms: O_11  and  C_23
REMARK   11  A    between atoms: C_15  and  C_22
REMARK   12  A    between atoms: C_20  and  C_23
REMARK                            x       y       z     vdW  Elec       q    Type
REMARK                         _______ _______ _______ _____ _____    ______ ____
ROOT
ATOM      1  O   UNL     1      -0.125  -0.378  -0.392  0.00  0.00    +0.000 OA
ENDROOT
BRANCH   1  14
ATOM      2  O   UNL     1      -1.679   0.306   1.263  0.00  0.00    +0.000 OA
ATOM     14  C   UNL     1      -1.018  -0.797   0.638  0.00  0.00    +0.000 C 
ATOM     16  C   UNL     1      -2.040  -1.824   0.147  0.00  0.00    +0.000 C 
ATOM     17  C   UNL     1      -3.083  -1.188  -0.771  0.00  0.00    +0.000 C 
ATOM     18  C   UNL     1      -3.676   0.065  -0.124  0.00  0.00    +0.000 C 
ATOM     20  C   UNL     1      -2.573   1.001   0.387  0.00  0.00    +0.000 C 
BRANCH  16   5
ATOM      5  O   UNL     1      -1.385  -2.881  -0.544  0.00  0.00    +0.000 OA
ATOM     25  H   UNL     1      -0.879  -2.488  -1.276  0.00  0.00    +0.000 HD
ENDBRANCH  16   5
BRANCH  17   6
ATOM      6  O   UNL     1      -4.141  -2.123  -0.993  0.00  0.00    +0.000 OA
ATOM     26  H   UNL     1      -4.722  -1.753  -1.679  0.00  0.00    +0.000 HD
ENDBRANCH  17   6
BRANCH  18   7
ATOM      7  O   UNL     1      -4.476   0.728  -1.100  0.00  0.00    +0.000 OA
ATOM     27  H   UNL     1      -5.245   0.164  -1.286  0.00  0.00    +0.000 HD
ENDBRANCH  18   7
BRANCH  20  23
ATOM     23  C   UNL     1      -3.140   2.179   1.173  0.00  0.00    +0.000 C 
BRANCH  23  11
ATOM     11  O   UNL     1      -2.064   2.985   1.617  0.00  0.00    +0.000 OA
ATOM     31  H   UNL     1      -1.476   2.424   2.150  0.00  0.00    +0.000 HD
ENDBRANCH  23  11
ENDBRANCH  20  23
ENDBRANCH   1  14
BRANCH   1  12
ATOM      3  O   UNL     1       3.130   1.296  -0.265  0.00  0.00    +0.000 OA
ATOM     12  C   UNL     1       1.161  -0.059   0.134  0.00  0.00    +0.000 C 
ATOM     13  C   UNL     1       2.025  -1.320   0.158  0.00  0.00    +0.000 C 
ATOM     15  C   UNL     1       1.807   1.025  -0.731  0.00  0.00    +0.000 C 
ATOM     19  C   UNL     1       3.481  -0.987   0.482  0.00  0.00    +0.000 C 
ATOM     21  C   UNL     1       3.992   0.167  -0.380  0.00  0.00    +0.000 C 
BRANCH  13   4
ATOM      4  O   UNL     1       1.503  -2.194   1.160  0.00  0.00    +0.000 OA
ATOM     24  H   UNL     1       2.073  -2.982   1.183  0.00  0.00    +0.000 HD
ENDBRANCH  13   4
BRANCH  19   8
ATOM      8  O   UNL     1       4.296  -2.131   0.227  0.00  0.00    +0.000 OA
ATOM     28  H   UNL     1       5.214  -1.887   0.436  0.00  0.00    +0.000 HD
ENDBRANCH  19   8
BRANCH  21   9
ATOM      9  O   UNL     1       5.300   0.511   0.076  0.00  0.00    +0.000 OA
ATOM     29  H   UNL     1       5.314   0.450   1.046  0.00  0.00    +0.000 HD
ENDBRANCH  21   9
BRANCH  15  22
ATOM     22  C   UNL     1       1.023   2.333  -0.676  0.00  0.00    +0.000 C 
BRANCH  22  10
ATOM     10  O   UNL     1       1.682   3.288  -1.488  0.00  0.00    +0.000 OA
ATOM     30  H   UNL     1       2.586   3.392  -1.144  0.00  0.00    +0.000 HD
ENDBRANCH  22  10
ENDBRANCH  15  22
ENDBRANCH   1  12
TORSDOF 12
